<?xml version="1.0" encoding="UTF-8"?>

<!-- generated on sáb 29 ago 2020 23:26:08 -03 by Eclipse SUMO netedit Version 1.5.0
<configuration xmlns:xsi="http://www.w3.org/2001/XMLSchema-instance" xsi:noNamespaceSchemaLocation="http://sumo.dlr.de/xsd/netconvertConfiguration.xsd">

    <input>
        <sumo-net-file value="/home/mariavitoria/salesmanProblem/SUMO/map.net.xml"/>
    </input>

    <output>
        <output-file value="/home/mariavitoria/salesmanProblem/SUMO/map.net.xml"/>
    </output>

    <processing>
        <geometry.min-radius.fix.railways value="false"/>
        <geometry.max-grade.fix value="false"/>
        <offset.disable-normalization value="true"/>
        <lefthand value="false"/>
    </processing>

    <junctions>
        <no-turnarounds value="true"/>
        <junctions.corner-detail value="5"/>
        <junctions.limit-turn-speed value="5.5"/>
        <rectangular-lane-cut value="false"/>
    </junctions>

    <pedestrian>
        <walkingareas value="false"/>
    </pedestrian>

    <report>
        <aggregate-warnings value="5"/>
    </report>

</configuration>
-->

<net version="1.3" junctionCornerDetail="5" limitTurnSpeed="5.50" xmlns:xsi="http://www.w3.org/2001/XMLSchema-instance" xsi:noNamespaceSchemaLocation="http://sumo.dlr.de/xsd/net_file.xsd">

    <location netOffset="-172156.57,142795.60" convBoundary="7.43,950.85,2112.68,1870.48" origBoundary="-47.945663,-1.290200,-47.921147,-1.262472" projParameter="+proj=utm +zone=23 +ellps=WGS84 +datum=WGS84 +units=m +no_defs"/>

    <type id="highway.bridleway" priority="1" numLanes="1" speed="2.78" allow="pedestrian" oneway="1" width="2.00"/>
    <type id="highway.bus_guideway" priority="1" numLanes="1" speed="27.78" allow="bus" oneway="1"/>
    <type id="highway.cycleway" priority="1" numLanes="1" speed="8.33" allow="bicycle" oneway="0" width="1.00"/>
    <type id="highway.footway" priority="1" numLanes="1" speed="2.78" allow="pedestrian" oneway="1" width="2.00"/>
    <type id="highway.ford" priority="1" numLanes="1" speed="2.78" allow="army" oneway="0"/>
    <type id="highway.living_street" priority="2" numLanes="1" speed="2.78" disallow="tram rail_urban rail rail_electric rail_fast ship" oneway="0"/>
    <type id="highway.motorway" priority="14" numLanes="2" speed="39.44" allow="private emergency authority army vip passenger hov taxi bus coach delivery truck trailer motorcycle evehicle custom1 custom2" oneway="1"/>
    <type id="highway.motorway_link" priority="9" numLanes="1" speed="22.22" allow="private emergency authority army vip passenger hov taxi bus coach delivery truck trailer motorcycle evehicle custom1 custom2" oneway="1"/>
    <type id="highway.path" priority="1" numLanes="1" speed="2.78" allow="pedestrian bicycle" oneway="1" width="2.00"/>
    <type id="highway.pedestrian" priority="1" numLanes="1" speed="2.78" allow="pedestrian" oneway="1" width="2.00"/>
    <type id="highway.primary" priority="12" numLanes="2" speed="27.78" disallow="tram rail_urban rail rail_electric rail_fast ship" oneway="0"/>
    <type id="highway.primary_link" priority="7" numLanes="1" speed="22.22" disallow="tram rail_urban rail rail_electric rail_fast ship" oneway="0"/>
    <type id="highway.raceway" priority="15" numLanes="2" speed="83.33" allow="vip" oneway="0"/>
    <type id="highway.residential" priority="3" numLanes="1" speed="13.89" disallow="tram rail_urban rail rail_electric rail_fast ship" oneway="0"/>
    <type id="highway.secondary" priority="11" numLanes="1" speed="27.78" disallow="tram rail_urban rail rail_electric rail_fast ship" oneway="0"/>
    <type id="highway.secondary_link" priority="6" numLanes="1" speed="22.22" disallow="tram rail_urban rail rail_electric rail_fast ship" oneway="0"/>
    <type id="highway.service" priority="1" numLanes="1" speed="5.56" allow="pedestrian delivery bicycle" oneway="0"/>
    <type id="highway.stairs" priority="1" numLanes="1" speed="1.39" allow="pedestrian" oneway="1" width="2.00"/>
    <type id="highway.step" priority="1" numLanes="1" speed="1.39" allow="pedestrian" oneway="1" width="2.00"/>
    <type id="highway.steps" priority="1" numLanes="1" speed="1.39" allow="pedestrian" oneway="1" width="2.00"/>
    <type id="highway.tertiary" priority="10" numLanes="1" speed="22.22" disallow="tram rail_urban rail rail_electric rail_fast ship" oneway="0"/>
    <type id="highway.tertiary_link" priority="5" numLanes="1" speed="22.22" disallow="tram rail_urban rail rail_electric rail_fast ship" oneway="0"/>
    <type id="highway.track" priority="1" numLanes="1" speed="5.56" disallow="tram rail_urban rail rail_electric rail_fast ship" oneway="0"/>
    <type id="highway.trunk" priority="13" numLanes="2" speed="27.78" disallow="pedestrian bicycle tram rail_urban rail rail_electric rail_fast ship" oneway="0"/>
    <type id="highway.trunk_link" priority="8" numLanes="1" speed="22.22" disallow="pedestrian bicycle tram rail_urban rail rail_electric rail_fast ship" oneway="0"/>
    <type id="highway.unclassified" priority="4" numLanes="1" speed="13.89" disallow="tram rail_urban rail rail_electric rail_fast ship" oneway="0"/>
    <type id="highway.unsurfaced" priority="1" numLanes="1" speed="8.33" disallow="tram rail_urban rail rail_electric rail_fast ship" oneway="0"/>
    <type id="railway.highspeed" priority="21" numLanes="1" speed="69.44" allow="rail_fast" oneway="1"/>
    <type id="railway.light_rail" priority="19" numLanes="1" speed="27.78" allow="rail_urban" oneway="1"/>
    <type id="railway.preserved" priority="16" numLanes="1" speed="27.78" allow="rail" oneway="1"/>
    <type id="railway.rail" priority="20" numLanes="1" speed="44.44" allow="rail" oneway="1"/>
    <type id="railway.subway" priority="18" numLanes="1" speed="27.78" allow="rail_urban" oneway="1"/>
    <type id="railway.tram" priority="17" numLanes="1" speed="13.89" allow="tram" oneway="1"/>

    <edge id=":001_0" function="internal">
        <lane id=":001_0_0" index="0" disallow="tram rail_urban rail rail_electric rail_fast ship" speed="6.07" length="8.00" shape="10.73,1801.49,1.01 8.56,1801.11,0.99 7.06,1800.13,0.98 6.23,1798.53,0.97 6.08,1796.33,0.95"/>
    </edge>
    <edge id=":001_1" function="internal">
        <lane id=":001_1_0" index="0" disallow="tram rail_urban rail rail_electric rail_fast ship" speed="3.90" length="2.67" shape="9.27,1796.57,0.95 9.32,1797.30,0.97 9.60,1797.83,0.98 10.10,1798.16,0.99 10.82,1798.29,1.01"/>
    </edge>
    <edge id=":002_0" function="internal">
        <lane id=":002_0_0" index="0" disallow="tram rail_urban rail rail_electric rail_fast ship" speed="22.22" length="14.38" shape="92.89,1803.94,1.28 78.51,1803.47,1.18"/>
    </edge>
    <edge id=":002_1" function="internal">
        <lane id=":002_1_0" index="0" disallow="tram rail_urban rail rail_electric rail_fast ship" speed="7.88" length="5.91" shape="92.89,1803.94,1.28 88.95,1803.22,1.26 87.37,1802.16,1.25"/>
    </edge>
    <edge id=":002_2" function="internal">
        <lane id=":002_2_0" index="0" disallow="tram rail_urban rail rail_electric rail_fast ship" speed="3.65" length="2.34" shape="92.89,1803.94,1.28 91.72,1803.10,1.28 91.35,1802.28,1.28"/>
    </edge>
    <edge id=":002_9" function="internal">
        <lane id=":002_9_0" index="0" disallow="tram rail_urban rail rail_electric rail_fast ship" speed="7.88" length="8.56" shape="87.37,1802.16,1.25 86.28,1801.42,1.25 84.87,1798.51,1.23 84.72,1794.51,1.22"/>
    </edge>
    <edge id=":002_10" function="internal">
        <lane id=":002_10_0" index="0" disallow="tram rail_urban rail rail_electric rail_fast ship" speed="3.65" length="2.34" shape="91.35,1802.28,1.28 91.78,1801.50,1.28 93.01,1800.74,1.28"/>
    </edge>
    <edge id=":002_3" function="internal">
        <lane id=":002_3_0" index="0" disallow="tram rail_urban rail rail_electric rail_fast ship" speed="6.36" length="9.04" shape="87.90,1794.85,1.22 87.99,1797.35,1.23 88.87,1799.16,1.25 90.54,1800.29,1.26 93.01,1800.74,1.28"/>
    </edge>
    <edge id=":002_4" function="internal">
        <lane id=":002_4_0" index="0" disallow="tram rail_urban rail rail_electric rail_fast ship" speed="8.26" length="14.29" shape="87.90,1794.85,1.22 86.96,1798.71,1.21 85.08,1801.44,1.20 82.27,1803.02,1.19 78.51,1803.47,1.18"/>
    </edge>
    <edge id=":002_5" function="internal">
        <lane id=":002_5_0" index="0" disallow="tram rail_urban rail rail_electric rail_fast ship" speed="3.65" length="4.67" shape="87.90,1794.85,1.22 86.98,1795.96,1.22 86.14,1796.27,1.22 85.39,1795.79,1.22 84.72,1794.51,1.22"/>
    </edge>
    <edge id=":002_6" function="internal">
        <lane id=":002_6_0" index="0" disallow="tram rail_urban rail rail_electric rail_fast ship" speed="6.82" length="9.42" shape="78.61,1800.27,1.18 81.04,1799.97,1.19 82.88,1798.91,1.20 84.10,1797.09,1.21 84.72,1794.51,1.22"/>
    </edge>
    <edge id=":002_7" function="internal">
        <lane id=":002_7_0" index="0" disallow="tram rail_urban rail rail_electric rail_fast ship" speed="22.22" length="14.41" shape="78.61,1800.27,1.18 93.01,1800.74,1.28"/>
    </edge>
    <edge id=":002_8" function="internal">
        <lane id=":002_8_0" index="0" disallow="tram rail_urban rail rail_electric rail_fast ship" speed="3.65" length="2.34" shape="78.61,1800.27,1.18 79.78,1801.10,1.18 80.16,1801.91,1.18"/>
    </edge>
    <edge id=":002_11" function="internal">
        <lane id=":002_11_0" index="0" disallow="tram rail_urban rail rail_electric rail_fast ship" speed="3.65" length="2.34" shape="80.16,1801.91,1.18 79.74,1802.70,1.18 78.51,1803.47,1.18"/>
    </edge>
    <edge id=":003_0" function="internal">
        <lane id=":003_0_0" index="0" disallow="tram rail_urban rail rail_electric rail_fast ship" speed="22.22" length="14.44" shape="166.92,1806.59,1.96 152.49,1806.11,1.92"/>
    </edge>
    <edge id=":003_1" function="internal">
        <lane id=":003_1_0" index="0" disallow="tram rail_urban rail rail_electric rail_fast ship" speed="7.86" length="5.98" shape="166.92,1806.59,1.96 162.96,1805.89,1.97 161.34,1804.80,1.97"/>
    </edge>
    <edge id=":003_2" function="internal">
        <lane id=":003_2_0" index="0" disallow="tram rail_urban rail rail_electric rail_fast ship" speed="3.65" length="2.34" shape="166.92,1806.59,1.96 165.75,1805.75,1.96 165.37,1804.94,1.96"/>
    </edge>
    <edge id=":003_8" function="internal">
        <lane id=":003_8_0" index="0" disallow="tram rail_urban rail rail_electric rail_fast ship" speed="7.86" length="8.53" shape="161.34,1804.80,1.97 160.28,1804.09,1.98 158.88,1801.18,1.98 158.75,1797.16,1.99"/>
    </edge>
    <edge id=":003_9" function="internal">
        <lane id=":003_9_0" index="0" disallow="tram rail_urban rail rail_electric rail_fast ship" speed="3.65" length="2.34" shape="165.37,1804.94,1.96 165.80,1804.16,1.96 167.02,1803.39,1.96"/>
    </edge>
    <edge id=":003_3" function="internal">
        <lane id=":003_3_0" index="0" disallow="tram rail_urban rail rail_electric rail_fast ship" speed="6.34" length="9.04" shape="161.93,1797.52,1.99 162.01,1800.02,1.98 162.88,1801.83,1.98 164.56,1802.96,1.97 167.02,1803.39,1.96"/>
    </edge>
    <edge id=":003_4" function="internal">
        <lane id=":003_4_0" index="0" disallow="tram rail_urban rail rail_electric rail_fast ship" speed="8.26" length="14.32" shape="161.93,1797.52,1.99 160.97,1801.39,1.98 159.07,1804.11,1.96 156.25,1805.68,1.94 152.49,1806.11,1.92"/>
    </edge>
    <edge id=":003_5" function="internal">
        <lane id=":003_5_0" index="0" disallow="tram rail_urban rail rail_electric rail_fast ship" speed="6.82" length="9.44" shape="152.60,1802.91,1.92 155.04,1802.62,1.94 156.88,1801.57,1.96 158.12,1799.75,1.97 158.75,1797.16,1.99"/>
    </edge>
    <edge id=":003_6" function="internal">
        <lane id=":003_6_0" index="0" disallow="tram rail_urban rail rail_electric rail_fast ship" speed="22.22" length="14.43" shape="152.60,1802.91,1.92 167.02,1803.39,1.96"/>
    </edge>
    <edge id=":003_7" function="internal">
        <lane id=":003_7_0" index="0" disallow="tram rail_urban rail rail_electric rail_fast ship" speed="3.65" length="2.34" shape="152.60,1802.91,1.92 153.77,1803.75,1.92 154.15,1804.56,1.92"/>
    </edge>
    <edge id=":003_10" function="internal">
        <lane id=":003_10_0" index="0" disallow="tram rail_urban rail rail_electric rail_fast ship" speed="3.65" length="2.34" shape="154.15,1804.56,1.92 153.72,1805.35,1.92 152.49,1806.11,1.92"/>
    </edge>
    <edge id=":004_0" function="internal">
        <lane id=":004_0_0" index="0" disallow="tram rail_urban rail rail_electric rail_fast ship" speed="22.22" length="14.47" shape="252.84,1809.22,1.47 238.38,1808.82,1.54"/>
    </edge>
    <edge id=":004_1" function="internal">
        <lane id=":004_1_0" index="0" disallow="tram rail_urban rail rail_electric rail_fast ship" speed="7.82" length="6.00" shape="252.84,1809.22,1.47 248.83,1808.54,1.49 247.23,1807.46,1.50"/>
    </edge>
    <edge id=":004_2" function="internal">
        <lane id=":004_2_0" index="0" disallow="tram rail_urban rail rail_electric rail_fast ship" speed="3.65" length="2.34" shape="252.84,1809.22,1.47 251.66,1808.39,1.47 251.28,1807.58,1.47"/>
    </edge>
    <edge id=":004_8" function="internal">
        <lane id=":004_8_0" index="0" disallow="tram rail_urban rail rail_electric rail_fast ship" speed="7.82" length="8.63" shape="247.23,1807.46,1.50 246.14,1806.72,1.50 244.78,1803.78,1.51 244.75,1799.71,1.53"/>
    </edge>
    <edge id=":004_9" function="internal">
        <lane id=":004_9_0" index="0" disallow="tram rail_urban rail rail_electric rail_fast ship" speed="3.65" length="2.34" shape="251.28,1807.58,1.47 251.70,1806.79,1.47 252.92,1806.02,1.47"/>
    </edge>
    <edge id=":004_3" function="internal">
        <lane id=":004_3_0" index="0" disallow="tram rail_urban rail rail_electric rail_fast ship" speed="6.28" length="9.04" shape="247.92,1800.14,1.53 247.94,1802.66,1.51 248.78,1804.48,1.50 250.44,1805.60,1.49 252.92,1806.02,1.47"/>
    </edge>
    <edge id=":004_4" function="internal">
        <lane id=":004_4_0" index="0" disallow="tram rail_urban rail rail_electric rail_fast ship" speed="8.37" length="14.38" shape="247.92,1800.14,1.53 246.87,1804.03,1.53 244.93,1806.78,1.53 242.10,1808.37,1.54 238.38,1808.82,1.54"/>
    </edge>
    <edge id=":004_5" function="internal">
        <lane id=":004_5_0" index="0" disallow="tram rail_urban rail rail_electric rail_fast ship" speed="6.95" length="9.60" shape="238.48,1805.62,1.54 240.91,1805.31,1.54 242.77,1804.22,1.53 244.05,1802.36,1.53 244.75,1799.71,1.53"/>
    </edge>
    <edge id=":004_6" function="internal">
        <lane id=":004_6_0" index="0" disallow="tram rail_urban rail rail_electric rail_fast ship" speed="22.22" length="14.45" shape="238.48,1805.62,1.54 252.92,1806.02,1.47"/>
    </edge>
    <edge id=":004_7" function="internal">
        <lane id=":004_7_0" index="0" disallow="tram rail_urban rail rail_electric rail_fast ship" speed="3.65" length="2.34" shape="238.48,1805.62,1.54 239.66,1806.45,1.54 240.03,1807.27,1.54"/>
    </edge>
    <edge id=":004_10" function="internal">
        <lane id=":004_10_0" index="0" disallow="tram rail_urban rail rail_electric rail_fast ship" speed="3.65" length="2.34" shape="240.03,1807.27,1.54 239.61,1808.05,1.54 238.38,1808.82,1.54"/>
    </edge>
    <edge id=":005_0" function="internal">
        <lane id=":005_0_0" index="0" disallow="tram rail_urban rail rail_electric rail_fast ship" speed="22.22" length="14.23" shape="341.65,1811.72,1.24 327.44,1811.09,1.22"/>
    </edge>
    <edge id=":005_1" function="internal">
        <lane id=":005_1_0" index="0" disallow="tram rail_urban rail rail_electric rail_fast ship" speed="7.92" length="5.75" shape="341.65,1811.72,1.24 337.77,1810.91,1.24 336.32,1809.88,1.24"/>
    </edge>
    <edge id=":005_2" function="internal">
        <lane id=":005_2_0" index="0" disallow="tram rail_urban rail rail_electric rail_fast ship" speed="3.65" length="2.34" shape="341.65,1811.72,1.24 340.51,1810.84,1.24 340.16,1810.02,1.24"/>
    </edge>
    <edge id=":005_8" function="internal">
        <lane id=":005_8_0" index="0" disallow="tram rail_urban rail rail_electric rail_fast ship" speed="7.92" length="8.63" shape="336.32,1809.88,1.24 335.14,1809.05,1.24 333.76,1806.13,1.24 333.64,1802.17,1.24"/>
    </edge>
    <edge id=":005_9" function="internal">
        <lane id=":005_9_0" index="0" disallow="tram rail_urban rail rail_electric rail_fast ship" speed="3.65" length="2.34" shape="340.16,1810.02,1.24 340.61,1809.25,1.24 341.85,1808.52,1.24"/>
    </edge>
    <edge id=":005_3" function="internal">
        <lane id=":005_3_0" index="0" disallow="tram rail_urban rail rail_electric rail_fast ship" speed="6.40" length="9.04" shape="336.82,1802.52,1.24 336.89,1805.02,1.24 337.76,1806.85,1.24 339.41,1808.02,1.24 341.85,1808.52,1.24"/>
    </edge>
    <edge id=":005_4" function="internal">
        <lane id=":005_4_0" index="0" disallow="tram rail_urban rail rail_electric rail_fast ship" speed="8.27" length="14.22" shape="336.82,1802.52,1.24 335.86,1806.35,1.24 333.98,1809.05,1.23 331.17,1810.63,1.23 327.44,1811.09,1.22"/>
    </edge>
    <edge id=":005_5" function="internal">
        <lane id=":005_5_0" index="0" disallow="tram rail_urban rail rail_electric rail_fast ship" speed="6.82" length="9.38" shape="327.52,1807.89,1.22 329.95,1807.58,1.23 331.78,1806.53,1.23 333.01,1804.72,1.24 333.64,1802.17,1.24"/>
    </edge>
    <edge id=":005_6" function="internal">
        <lane id=":005_6_0" index="0" disallow="tram rail_urban rail rail_electric rail_fast ship" speed="22.22" length="14.35" shape="327.52,1807.89,1.22 341.85,1808.52,1.24"/>
    </edge>
    <edge id=":005_7" function="internal">
        <lane id=":005_7_0" index="0" disallow="tram rail_urban rail rail_electric rail_fast ship" speed="3.65" length="2.34" shape="327.52,1807.89,1.22 328.70,1808.72,1.22 329.08,1809.53,1.22"/>
    </edge>
    <edge id=":005_10" function="internal">
        <lane id=":005_10_0" index="0" disallow="tram rail_urban rail rail_electric rail_fast ship" speed="3.65" length="2.34" shape="329.08,1809.53,1.22 328.66,1810.32,1.22 327.44,1811.09,1.22"/>
    </edge>
    <edge id=":006_0" function="internal">
        <lane id=":006_0_0" index="0" disallow="tram rail_urban rail rail_electric rail_fast ship" speed="22.22" length="14.57" shape="428.40,1816.92,1.64 413.85,1816.25,1.66"/>
    </edge>
    <edge id=":006_1" function="internal">
        <lane id=":006_1_0" index="0" disallow="tram rail_urban rail rail_electric rail_fast ship" speed="7.87" length="6.12" shape="428.40,1816.92,1.64 424.44,1816.23,1.67 422.69,1815.06,1.69"/>
    </edge>
    <edge id=":006_2" function="internal">
        <lane id=":006_2_0" index="0" disallow="tram rail_urban rail rail_electric rail_fast ship" speed="3.65" length="2.34" shape="428.40,1816.92,1.64 427.23,1816.09,1.64 426.85,1815.27,1.64"/>
    </edge>
    <edge id=":006_8" function="internal">
        <lane id=":006_8_0" index="0" disallow="tram rail_urban rail rail_electric rail_fast ship" speed="7.87" length="8.38" shape="422.69,1815.06,1.69 421.76,1814.43,1.70 420.35,1811.52,1.72 420.21,1807.51,1.75"/>
    </edge>
    <edge id=":006_9" function="internal">
        <lane id=":006_9_0" index="0" disallow="tram rail_urban rail rail_electric rail_fast ship" speed="3.65" length="2.34" shape="426.85,1815.27,1.64 427.27,1814.49,1.64 428.50,1813.72,1.64"/>
    </edge>
    <edge id=":006_3" function="internal">
        <lane id=":006_3_0" index="0" disallow="tram rail_urban rail rail_electric rail_fast ship" speed="6.34" length="9.04" shape="423.39,1807.85,1.75 423.47,1810.36,1.72 424.36,1812.17,1.70 426.03,1813.29,1.67 428.50,1813.72,1.64"/>
    </edge>
    <edge id=":006_4" function="internal">
        <lane id=":006_4_0" index="0" disallow="tram rail_urban rail rail_electric rail_fast ship" speed="8.18" length="14.35" shape="423.39,1807.85,1.75 422.43,1811.73,1.72 420.52,1814.42,1.70 417.66,1815.93,1.68 413.85,1816.25,1.66"/>
    </edge>
    <edge id=":006_5" function="internal">
        <lane id=":006_5_0" index="0" disallow="tram rail_urban rail rail_electric rail_fast ship" speed="6.72" length="9.36" shape="414.05,1813.06,1.66 416.50,1812.84,1.68 418.35,1811.85,1.70 419.58,1810.07,1.72 420.21,1807.51,1.75"/>
    </edge>
    <edge id=":006_6" function="internal">
        <lane id=":006_6_0" index="0" disallow="tram rail_urban rail rail_electric rail_fast ship" speed="22.22" length="14.46" shape="414.05,1813.06,1.66 428.50,1813.72,1.64"/>
    </edge>
    <edge id=":006_7" function="internal">
        <lane id=":006_7_0" index="0" disallow="tram rail_urban rail rail_electric rail_fast ship" speed="3.65" length="2.34" shape="414.05,1813.06,1.66 415.19,1813.93,1.66 415.54,1814.76,1.66"/>
    </edge>
    <edge id=":006_10" function="internal">
        <lane id=":006_10_0" index="0" disallow="tram rail_urban rail rail_electric rail_fast ship" speed="3.65" length="2.34" shape="415.54,1814.76,1.66 415.09,1815.53,1.66 413.85,1816.25,1.66"/>
    </edge>
    <edge id=":007_0" function="internal">
        <lane id=":007_0_0" index="0" disallow="tram rail_urban rail rail_electric rail_fast ship" speed="22.22" length="14.44" shape="504.36,1819.15,1.18 489.93,1818.75,1.16"/>
    </edge>
    <edge id=":007_1" function="internal">
        <lane id=":007_1_0" index="0" disallow="tram rail_urban rail rail_electric rail_fast ship" speed="7.87" length="5.97" shape="504.36,1819.15,1.18 500.40,1818.48,1.17 498.77,1817.40,1.17"/>
    </edge>
    <edge id=":007_2" function="internal">
        <lane id=":007_2_0" index="0" disallow="tram rail_urban rail rail_electric rail_fast ship" speed="3.65" length="2.34" shape="504.36,1819.15,1.18 503.18,1818.32,1.18 502.80,1817.51,1.18"/>
    </edge>
    <edge id=":007_9" function="internal">
        <lane id=":007_9_0" index="0" disallow="tram rail_urban rail rail_electric rail_fast ship" speed="7.87" length="8.52" shape="498.77,1817.40,1.17 497.71,1816.69,1.17 496.28,1813.80,1.16 496.11,1809.79,1.15"/>
    </edge>
    <edge id=":007_10" function="internal">
        <lane id=":007_10_0" index="0" disallow="tram rail_urban rail rail_electric rail_fast ship" speed="3.65" length="2.34" shape="502.80,1817.51,1.18 503.22,1816.72,1.18 504.44,1815.95,1.18"/>
    </edge>
    <edge id=":007_3" function="internal">
        <lane id=":007_3_0" index="0" disallow="tram rail_urban rail rail_electric rail_fast ship" speed="6.35" length="9.04" shape="499.29,1810.11,1.15 499.40,1812.61,1.16 500.29,1814.42,1.17 501.97,1815.53,1.17 504.44,1815.95,1.18"/>
    </edge>
    <edge id=":007_4" function="internal">
        <lane id=":007_4_0" index="0" disallow="tram rail_urban rail rail_electric rail_fast ship" speed="8.25" length="14.31" shape="499.29,1810.11,1.15 498.37,1813.98,1.15 496.50,1816.72,1.15 493.69,1818.31,1.15 489.93,1818.75,1.16"/>
    </edge>
    <edge id=":007_5" function="internal">
        <lane id=":007_5_0" index="0" disallow="tram rail_urban rail rail_electric rail_fast ship" speed="3.65" length="4.67" shape="499.29,1810.11,1.15 498.38,1811.22,1.15 497.54,1811.54,1.15 496.78,1811.06,1.15 496.11,1809.79,1.15"/>
    </edge>
    <edge id=":007_6" function="internal">
        <lane id=":007_6_0" index="0" disallow="tram rail_urban rail rail_electric rail_fast ship" speed="6.80" length="9.41" shape="490.02,1815.55,1.16 492.46,1815.25,1.15 494.29,1814.19,1.15 495.50,1812.37,1.15 496.11,1809.79,1.15"/>
    </edge>
    <edge id=":007_7" function="internal">
        <lane id=":007_7_0" index="0" disallow="tram rail_urban rail rail_electric rail_fast ship" speed="22.22" length="14.42" shape="490.02,1815.55,1.16 504.44,1815.95,1.18"/>
    </edge>
    <edge id=":007_8" function="internal">
        <lane id=":007_8_0" index="0" disallow="tram rail_urban rail rail_electric rail_fast ship" speed="3.65" length="2.34" shape="490.02,1815.55,1.16 491.20,1816.39,1.16 491.57,1817.20,1.16"/>
    </edge>
    <edge id=":007_11" function="internal">
        <lane id=":007_11_0" index="0" disallow="tram rail_urban rail rail_electric rail_fast ship" speed="3.65" length="2.34" shape="491.57,1817.20,1.16 491.15,1817.99,1.16 489.93,1818.75,1.16"/>
    </edge>
    <edge id=":008_0" function="internal">
        <lane id=":008_0_0" index="0" disallow="tram rail_urban rail rail_electric rail_fast ship" speed="22.22" length="14.35" shape="578.16,1821.17,1.87 563.82,1820.69,1.83"/>
    </edge>
    <edge id=":008_1" function="internal">
        <lane id=":008_1_0" index="0" disallow="tram rail_urban rail rail_electric rail_fast ship" speed="7.87" length="5.87" shape="578.16,1821.17,1.87 574.22,1820.44,1.89 572.68,1819.39,1.90"/>
    </edge>
    <edge id=":008_2" function="internal">
        <lane id=":008_2_0" index="0" disallow="tram rail_urban rail rail_electric rail_fast ship" speed="3.65" length="2.34" shape="578.16,1821.17,1.87 576.99,1820.32,1.87 576.63,1819.51,1.87"/>
    </edge>
    <edge id=":008_9" function="internal">
        <lane id=":008_9_0" index="0" disallow="tram rail_urban rail rail_electric rail_fast ship" speed="7.87" length="8.61" shape="572.68,1819.39,1.90 571.55,1818.61,1.91 570.16,1815.69,1.92 570.06,1811.68,1.95"/>
    </edge>
    <edge id=":008_10" function="internal">
        <lane id=":008_10_0" index="0" disallow="tram rail_urban rail rail_electric rail_fast ship" speed="3.65" length="2.34" shape="576.63,1819.51,1.87 577.06,1818.72,1.87 578.29,1817.97,1.87"/>
    </edge>
    <edge id=":008_3" function="internal">
        <lane id=":008_3_0" index="0" disallow="tram rail_urban rail rail_electric rail_fast ship" speed="6.35" length="9.04" shape="573.23,1812.05,1.95 573.30,1814.56,1.92 574.17,1816.38,1.91 575.83,1817.52,1.89 578.29,1817.97,1.87"/>
    </edge>
    <edge id=":008_4" function="internal">
        <lane id=":008_4_0" index="0" disallow="tram rail_urban rail rail_electric rail_fast ship" speed="8.30" length="14.29" shape="573.23,1812.05,1.95 572.26,1815.91,1.91 570.36,1818.64,1.88 567.55,1820.23,1.86 563.82,1820.69,1.83"/>
    </edge>
    <edge id=":008_5" function="internal">
        <lane id=":008_5_0" index="0" disallow="tram rail_urban rail rail_electric rail_fast ship" speed="3.65" length="4.67" shape="573.23,1812.05,1.95 572.30,1813.15,1.95 571.46,1813.46,1.95 570.71,1812.97,1.95 570.06,1811.68,1.95"/>
    </edge>
    <edge id=":008_6" function="internal">
        <lane id=":008_6_0" index="0" disallow="tram rail_urban rail rail_electric rail_fast ship" speed="6.86" length="9.47" shape="563.90,1817.49,1.83 566.33,1817.18,1.86 568.17,1816.11,1.88 569.41,1814.28,1.91 570.06,1811.68,1.95"/>
    </edge>
    <edge id=":008_7" function="internal">
        <lane id=":008_7_0" index="0" disallow="tram rail_urban rail rail_electric rail_fast ship" speed="22.22" length="14.40" shape="563.90,1817.49,1.83 578.29,1817.97,1.87"/>
    </edge>
    <edge id=":008_8" function="internal">
        <lane id=":008_8_0" index="0" disallow="tram rail_urban rail rail_electric rail_fast ship" speed="3.65" length="2.34" shape="563.90,1817.49,1.83 565.08,1818.32,1.83 565.46,1819.13,1.83"/>
    </edge>
    <edge id=":008_11" function="internal">
        <lane id=":008_11_0" index="0" disallow="tram rail_urban rail rail_electric rail_fast ship" speed="3.65" length="2.34" shape="565.46,1819.13,1.83 565.04,1819.92,1.83 563.82,1820.69,1.83"/>
    </edge>
    <edge id=":009_0" function="internal">
        <lane id=":009_0_0" index="0" disallow="tram rail_urban rail rail_electric rail_fast ship" speed="22.22" length="14.37" shape="654.02,1824.33,1.64 639.66,1823.67,1.63"/>
    </edge>
    <edge id=":009_1" function="internal">
        <lane id=":009_1_0" index="0" disallow="tram rail_urban rail rail_electric rail_fast ship" speed="7.85" length="5.90" shape="654.02,1824.33,1.64 650.06,1823.55,1.58 648.53,1822.48,1.55"/>
    </edge>
    <edge id=":009_2" function="internal">
        <lane id=":009_2_0" index="0" disallow="tram rail_urban rail rail_electric rail_fast ship" speed="3.65" length="2.34" shape="654.02,1824.33,1.64 652.86,1823.47,1.64 652.50,1822.65,1.64"/>
    </edge>
    <edge id=":009_9" function="internal">
        <lane id=":009_9_0" index="0" disallow="tram rail_urban rail rail_electric rail_fast ship" speed="7.85" length="8.63" shape="648.53,1822.48,1.55 647.42,1821.69,1.53 646.08,1818.74,1.47 646.06,1814.71,1.41"/>
    </edge>
    <edge id=":009_10" function="internal">
        <lane id=":009_10_0" index="0" disallow="tram rail_urban rail rail_electric rail_fast ship" speed="3.65" length="2.34" shape="652.50,1822.65,1.64 652.94,1821.87,1.64 654.18,1821.14,1.64"/>
    </edge>
    <edge id=":009_3" function="internal">
        <lane id=":009_3_0" index="0" disallow="tram rail_urban rail rail_electric rail_fast ship" speed="6.33" length="9.04" shape="649.23,1815.15,1.41 649.24,1817.66,1.47 650.07,1819.49,1.53 651.72,1820.65,1.58 654.18,1821.14,1.64"/>
    </edge>
    <edge id=":009_4" function="internal">
        <lane id=":009_4_0" index="0" disallow="tram rail_urban rail rail_electric rail_fast ship" speed="8.33" length="14.32" shape="649.23,1815.15,1.41 648.17,1819.01,1.47 646.22,1821.71,1.52 643.39,1823.26,1.57 639.66,1823.67,1.63"/>
    </edge>
    <edge id=":009_5" function="internal">
        <lane id=":009_5_0" index="0" disallow="tram rail_urban rail rail_electric rail_fast ship" speed="3.65" length="4.67" shape="649.23,1815.15,1.41 648.27,1816.23,1.41 647.43,1816.52,1.41 646.69,1816.01,1.41 646.06,1814.71,1.41"/>
    </edge>
    <edge id=":009_6" function="internal">
        <lane id=":009_6_0" index="0" disallow="tram rail_urban rail rail_electric rail_fast ship" speed="6.90" length="9.51" shape="639.79,1820.47,1.63 642.22,1820.19,1.57 644.08,1819.14,1.52 645.36,1817.32,1.47 646.06,1814.71,1.41"/>
    </edge>
    <edge id=":009_7" function="internal">
        <lane id=":009_7_0" index="0" disallow="tram rail_urban rail rail_electric rail_fast ship" speed="22.22" length="14.41" shape="639.79,1820.47,1.63 654.18,1821.14,1.64"/>