<?xml version="1.0" encoding="UTF-8"?>

<!-- generated on qui 16 jul 2020 19:42:11 -03 by Eclipse SUMO netedit Version 1.5.0
<configuration xmlns:xsi="http://www.w3.org/2001/XMLSchema-instance" xsi:noNamespaceSchemaLocation="http://sumo.dlr.de/xsd/netconvertConfiguration.xsd">

    <input>
        <sumo-net-file value="/home/mariavitoria/salesmanProblem/SUMO/map.net.xml"/>
    </input>

    <output>
        <output-file value="/home/mariavitoria/salesmanProblem/SUMO/map.net.xml"/>
    </output>

    <processing>
        <geometry.min-radius.fix.railways value="false"/>
        <geometry.max-grade.fix value="false"/>
        <offset.disable-normalization value="true"/>
        <lefthand value="false"/>
    </processing>

    <junctions>
        <no-turnarounds value="true"/>
        <junctions.corner-detail value="5"/>
        <junctions.limit-turn-speed value="5.5"/>
        <rectangular-lane-cut value="false"/>
    </junctions>

    <pedestrian>
        <walkingareas value="false"/>
    </pedestrian>

    <report>
        <aggregate-warnings value="5"/>
    </report>

</configuration>
-->

<net version="1.3" junctionCornerDetail="5" limitTurnSpeed="5.50" xmlns:xsi="http://www.w3.org/2001/XMLSchema-instance" xsi:noNamespaceSchemaLocation="http://sumo.dlr.de/xsd/net_file.xsd">

    <location netOffset="-286697.45,2524321.54" convBoundary="524.95,945.30,1431.88,1301.00" origBoundary="-47.078142,-22.813072,-47.063018,-22.799766" projParameter="+proj=utm +zone=23 +ellps=WGS84 +datum=WGS84 +units=m +no_defs"/>

    <type id="highway.bridleway" priority="1" numLanes="1" speed="2.78" allow="pedestrian" oneway="1" width="2.00"/>
    <type id="highway.bus_guideway" priority="1" numLanes="1" speed="27.78" allow="bus" oneway="1"/>
    <type id="highway.cycleway" priority="1" numLanes="1" speed="8.33" allow="bicycle" oneway="0" width="1.00"/>
    <type id="highway.footway" priority="1" numLanes="1" speed="2.78" allow="pedestrian" oneway="1" width="2.00"/>
    <type id="highway.ford" priority="1" numLanes="1" speed="2.78" allow="army" oneway="0"/>
    <type id="highway.living_street" priority="2" numLanes="1" speed="2.78" disallow="tram rail_urban rail rail_electric rail_fast ship" oneway="0"/>
    <type id="highway.motorway" priority="14" numLanes="2" speed="39.44" allow="private emergency authority army vip passenger hov taxi bus coach delivery truck trailer motorcycle evehicle custom1 custom2" oneway="1"/>
    <type id="highway.motorway_link" priority="9" numLanes="1" speed="22.22" allow="private emergency authority army vip passenger hov taxi bus coach delivery truck trailer motorcycle evehicle custom1 custom2" oneway="1"/>
    <type id="highway.path" priority="1" numLanes="1" speed="2.78" allow="pedestrian bicycle" oneway="1" width="2.00"/>
    <type id="highway.pedestrian" priority="1" numLanes="1" speed="2.78" allow="pedestrian" oneway="1" width="2.00"/>
    <type id="highway.primary" priority="12" numLanes="2" speed="27.78" disallow="tram rail_urban rail rail_electric rail_fast ship" oneway="0"/>
    <type id="highway.primary_link" priority="7" numLanes="1" speed="22.22" disallow="tram rail_urban rail rail_electric rail_fast ship" oneway="0"/>
    <type id="highway.raceway" priority="15" numLanes="2" speed="83.33" allow="vip" oneway="0"/>
    <type id="highway.residential" priority="3" numLanes="1" speed="13.89" disallow="tram rail_urban rail rail_electric rail_fast ship" oneway="0"/>
    <type id="highway.secondary" priority="11" numLanes="1" speed="27.78" disallow="tram rail_urban rail rail_electric rail_fast ship" oneway="0"/>
    <type id="highway.secondary_link" priority="6" numLanes="1" speed="22.22" disallow="tram rail_urban rail rail_electric rail_fast ship" oneway="0"/>
    <type id="highway.service" priority="1" numLanes="1" speed="5.56" allow="pedestrian delivery bicycle" oneway="0"/>
    <type id="highway.stairs" priority="1" numLanes="1" speed="1.39" allow="pedestrian" oneway="1" width="2.00"/>
    <type id="highway.step" priority="1" numLanes="1" speed="1.39" allow="pedestrian" oneway="1" width="2.00"/>
    <type id="highway.steps" priority="1" numLanes="1" speed="1.39" allow="pedestrian" oneway="1" width="2.00"/>
    <type id="highway.tertiary" priority="10" numLanes="1" speed="22.22" disallow="tram rail_urban rail rail_electric rail_fast ship" oneway="0"/>
    <type id="highway.tertiary_link" priority="5" numLanes="1" speed="22.22" disallow="tram rail_urban rail rail_electric rail_fast ship" oneway="0"/>
    <type id="highway.track" priority="1" numLanes="1" speed="5.56" disallow="tram rail_urban rail rail_electric rail_fast ship" oneway="0"/>
    <type id="highway.trunk" priority="13" numLanes="2" speed="27.78" disallow="pedestrian bicycle tram rail_urban rail rail_electric rail_fast ship" oneway="0"/>
    <type id="highway.trunk_link" priority="8" numLanes="1" speed="22.22" disallow="pedestrian bicycle tram rail_urban rail rail_electric rail_fast ship" oneway="0"/>
    <type id="highway.unclassified" priority="4" numLanes="1" speed="13.89" disallow="tram rail_urban rail rail_electric rail_fast ship" oneway="0"/>
    <type id="highway.unsurfaced" priority="1" numLanes="1" speed="8.33" disallow="tram rail_urban rail rail_electric rail_fast ship" oneway="0"/>
    <type id="railway.highspeed" priority="21" numLanes="1" speed="69.44" allow="rail_fast" oneway="1"/>
    <type id="railway.light_rail" priority="19" numLanes="1" speed="27.78" allow="rail_urban" oneway="1"/>
    <type id="railway.preserved" priority="16" numLanes="1" speed="27.78" allow="rail" oneway="1"/>
    <type id="railway.rail" priority="20" numLanes="1" speed="44.44" allow="rail" oneway="1"/>
    <type id="railway.subway" priority="18" numLanes="1" speed="27.78" allow="rail_urban" oneway="1"/>
    <type id="railway.tram" priority="17" numLanes="1" speed="13.89" allow="tram" oneway="1"/>

    <edge id=":1_0" function="internal">
        <lane id=":1_0_0" index="0" disallow="tram rail_urban rail rail_electric rail_fast ship" speed="6.08" length="7.61" shape="539.92,1302.53,8.07 537.86,1302.28,8.06 536.35,1301.44,8.05 535.40,1300.00,8.05 535.01,1297.96,8.04"/>
    </edge>
    <edge id=":1_1" function="internal">
        <lane id=":1_1_0" index="0" disallow="tram rail_urban rail rail_electric rail_fast ship" speed="3.91" length="2.54" shape="538.21,1297.80,8.04 538.34,1298.48,8.05 538.66,1298.96,8.05 539.16,1299.25,8.06 539.84,1299.33,8.07"/>
    </edge>
    <edge id=":1_2" function="internal">
        <lane id=":1_2_0" index="0" disallow="tram rail_urban rail rail_electric rail_fast ship" speed="3.65" length="2.08" shape="538.21,1297.80,8.04 537.47,1299.04,8.04 536.91,1299.35,8.04"/>
    </edge>
    <edge id=":1_3" function="internal">
        <lane id=":1_3_0" index="0" disallow="tram rail_urban rail rail_electric rail_fast ship" speed="3.65" length="2.59" shape="536.91,1299.35,8.04 536.69,1299.48,8.04 535.87,1299.12,8.04 535.01,1297.96,8.04"/>
    </edge>
    <edge id=":10_0" function="internal">
        <lane id=":10_0_0" index="0" disallow="tram rail_urban rail rail_electric rail_fast ship" speed="13.89" length="14.40" shape="1143.15,1282.74,10.90 1128.76,1283.22,11.00"/>
    </edge>
    <edge id=":10_1" function="internal">
        <lane id=":10_1_0" index="0" disallow="tram rail_urban rail rail_electric rail_fast ship" speed="8.00" length="5.93" shape="1143.15,1282.74,10.90 1139.28,1282.32,10.93 1137.50,1281.33,10.94"/>
    </edge>
    <edge id=":10_7" function="internal">
        <lane id=":10_7_0" index="0" disallow="tram rail_urban rail rail_electric rail_fast ship" speed="8.00" length="8.27" shape="1137.50,1281.33,10.94 1136.47,1280.76,10.95 1134.74,1278.06,10.97 1134.07,1274.23,11.00"/>
    </edge>
    <edge id=":10_2" function="internal">
        <lane id=":10_2_0" index="0" disallow="tram rail_urban rail rail_electric rail_fast ship" speed="6.50" length="9.03" shape="1137.26,1274.13,11.00 1137.69,1276.56,10.97 1138.80,1278.28,10.95 1140.58,1279.27,10.93 1143.04,1279.54,10.90"/>
    </edge>
    <edge id=":10_3" function="internal">
        <lane id=":10_3_0" index="0" disallow="tram rail_urban rail rail_electric rail_fast ship" speed="8.01" length="14.19" shape="1137.26,1274.13,11.00 1136.84,1277.99,11.00 1135.27,1280.80,11.00 1132.58,1282.54,11.00 1128.76,1283.22,11.00"/>
    </edge>
    <edge id=":10_4" function="internal">
        <lane id=":10_4_0" index="0" disallow="tram rail_urban rail rail_electric rail_fast ship" speed="3.65" length="4.67" shape="1137.26,1274.13,11.00 1136.50,1275.35,11.00 1135.71,1275.78,11.00 1134.90,1275.40,11.00 1134.07,1274.23,11.00"/>
    </edge>
    <edge id=":10_5" function="internal">
        <lane id=":10_5_0" index="0" disallow="tram rail_urban rail rail_electric rail_fast ship" speed="6.52" length="9.04" shape="1128.65,1280.02,11.00 1131.08,1279.59,11.00 1132.80,1278.48,11.00 1133.79,1276.69,11.00 1134.07,1274.23,11.00"/>
    </edge>
    <edge id=":10_6" function="internal">
        <lane id=":10_6_0" index="0" disallow="tram rail_urban rail rail_electric rail_fast ship" speed="13.89" length="14.40" shape="1128.65,1280.02,11.00 1143.04,1279.54,10.90"/>
    </edge>
    <edge id=":11_0" function="internal">
        <lane id=":11_0_0" index="0" disallow="tram rail_urban rail rail_electric rail_fast ship" speed="13.89" length="14.40" shape="1217.68,1280.24,10.00 1203.29,1280.72,10.10"/>
    </edge>
    <edge id=":11_1" function="internal">
        <lane id=":11_1_0" index="0" disallow="tram rail_urban rail rail_electric rail_fast ship" speed="8.00" length="5.93" shape="1217.68,1280.24,10.00 1213.81,1279.82,10.00 1212.03,1278.83,10.00"/>
    </edge>
    <edge id=":11_7" function="internal">
        <lane id=":11_7_0" index="0" disallow="tram rail_urban rail rail_electric rail_fast ship" speed="8.00" length="8.27" shape="1212.03,1278.83,10.00 1211.00,1278.26,10.00 1209.27,1275.56,10.00 1208.60,1271.73,10.00"/>
    </edge>
    <edge id=":11_2" function="internal">
        <lane id=":11_2_0" index="0" disallow="tram rail_urban rail rail_electric rail_fast ship" speed="6.50" length="9.03" shape="1211.79,1271.63,10.00 1212.22,1274.06,10.00 1213.33,1275.78,10.00 1215.11,1276.77,10.00 1217.57,1277.04,10.00"/>
    </edge>
    <edge id=":11_3" function="internal">
        <lane id=":11_3_0" index="0" disallow="tram rail_urban rail rail_electric rail_fast ship" speed="8.01" length="14.20" shape="1211.79,1271.63,10.00 1211.37,1275.49,10.03 1209.80,1278.30,10.05 1207.11,1280.04,10.07 1203.29,1280.72,10.10"/>
    </edge>
    <edge id=":11_4" function="internal">
        <lane id=":11_4_0" index="0" disallow="tram rail_urban rail rail_electric rail_fast ship" speed="3.65" length="4.67" shape="1211.79,1271.63,10.00 1211.03,1272.85,10.00 1210.25,1273.27,10.00 1209.43,1272.90,10.00 1208.60,1271.73,10.00"/>
    </edge>
    <edge id=":11_5" function="internal">
        <lane id=":11_5_0" index="0" disallow="tram rail_urban rail rail_electric rail_fast ship" speed="6.52" length="9.04" shape="1203.18,1277.52,10.10 1205.61,1277.09,10.07 1207.33,1275.98,10.05 1208.32,1274.19,10.03 1208.60,1271.73,10.00"/>
    </edge>
    <edge id=":11_6" function="internal">
        <lane id=":11_6_0" index="0" disallow="tram rail_urban rail rail_electric rail_fast ship" speed="13.89" length="14.40" shape="1203.18,1277.52,10.10 1217.57,1277.04,10.00"/>
    </edge>
    <edge id=":12_0" function="internal">
        <lane id=":12_0_0" index="0" disallow="tram rail_urban rail rail_electric rail_fast ship" speed="13.89" length="14.40" shape="1291.21,1277.76,10.00 1276.81,1278.24,10.00"/>
    </edge>
    <edge id=":12_1" function="internal">
        <lane id=":12_1_0" index="0" disallow="tram rail_urban rail rail_electric rail_fast ship" speed="8.02" length="5.92" shape="1291.21,1277.76,10.00 1287.35,1277.34,10.00 1285.56,1276.35,10.00"/>
    </edge>
    <edge id=":12_7" function="internal">
        <lane id=":12_7_0" index="0" disallow="tram rail_urban rail rail_electric rail_fast ship" speed="8.02" length="8.28" shape="1285.56,1276.35,10.00 1284.54,1275.78,10.00 1282.79,1273.08,10.00 1282.10,1269.25,10.00"/>
    </edge>
    <edge id=":12_2" function="internal">
        <lane id=":12_2_0" index="0" disallow="tram rail_urban rail rail_electric rail_fast ship" speed="6.52" length="9.05" shape="1285.30,1269.13,10.00 1285.74,1271.58,10.00 1286.85,1273.30,10.00 1288.64,1274.29,10.00 1291.10,1274.56,10.00"/>
    </edge>
    <edge id=":12_3" function="internal">
        <lane id=":12_3_0" index="0" disallow="tram rail_urban rail rail_electric rail_fast ship" speed="7.99" length="14.21" shape="1285.30,1269.13,10.00 1284.89,1273.01,10.00 1283.34,1275.82,10.00 1280.65,1277.56,10.00 1276.81,1278.24,10.00"/>
    </edge>
    <edge id=":12_4" function="internal">
        <lane id=":12_4_0" index="0" disallow="tram rail_urban rail rail_electric rail_fast ship" speed="3.65" length="4.67" shape="1285.30,1269.13,10.00 1284.54,1270.36,10.00 1283.76,1270.79,10.00 1282.94,1270.42,10.00 1282.10,1269.25,10.00"/>
    </edge>
    <edge id=":12_5" function="internal">
        <lane id=":12_5_0" index="0" disallow="tram rail_urban rail rail_electric rail_fast ship" speed="6.50" length="9.03" shape="1276.71,1275.04,10.00 1279.14,1274.61,10.00 1280.86,1273.50,10.00 1281.84,1271.72,10.00 1282.10,1269.25,10.00"/>
    </edge>
    <edge id=":12_6" function="internal">
        <lane id=":12_6_0" index="0" disallow="tram rail_urban rail rail_electric rail_fast ship" speed="13.89" length="14.40" shape="1276.71,1275.04,10.00 1291.10,1274.56,10.00"/>
    </edge>
    <edge id=":13_0" function="internal">
        <lane id=":13_0_0" index="0" disallow="tram rail_urban rail rail_electric rail_fast ship" speed="13.89" length="14.40" shape="1364.68,1275.27,5.00 1350.29,1275.75,5.00"/>
    </edge>
    <edge id=":13_1" function="internal">
        <lane id=":13_1_0" index="0" disallow="tram rail_urban rail rail_electric rail_fast ship" speed="7.99" length="5.93" shape="1364.68,1275.27,5.00 1360.81,1274.84,4.96 1359.04,1273.86,4.94"/>
    </edge>
    <edge id=":13_7" function="internal">
        <lane id=":13_7_0" index="0" disallow="tram rail_urban rail rail_electric rail_fast ship" speed="7.99" length="8.29" shape="1359.04,1273.86,4.94 1358.00,1273.28,4.93 1356.28,1270.58,4.90 1355.62,1266.73,4.87"/>
    </edge>
    <edge id=":13_2" function="internal">
        <lane id=":13_2_0" index="0" disallow="tram rail_urban rail rail_electric rail_fast ship" speed="6.49" length="9.03" shape="1358.82,1266.65,4.87 1359.24,1269.09,4.90 1360.33,1270.81,4.93 1362.11,1271.80,4.96 1364.58,1272.07,5.00"/>
    </edge>
    <edge id=":13_3" function="internal">
        <lane id=":13_3_0" index="0" disallow="tram rail_urban rail rail_electric rail_fast ship" speed="8.03" length="14.20" shape="1358.82,1266.65,4.87 1358.37,1270.52,4.90 1356.80,1273.33,4.93 1354.11,1275.07,4.96 1350.29,1275.75,5.00"/>
    </edge>
    <edge id=":13_4" function="internal">
        <lane id=":13_4_0" index="0" disallow="tram rail_urban rail rail_electric rail_fast ship" speed="3.65" length="4.67" shape="1358.82,1266.65,4.87 1358.05,1267.87,4.87 1357.26,1268.29,4.87 1356.45,1267.91,4.87 1355.62,1266.73,4.87"/>
    </edge>
    <edge id=":13_5" function="internal">
        <lane id=":13_5_0" index="0" disallow="tram rail_urban rail rail_electric rail_fast ship" speed="6.54" length="9.07" shape="1350.19,1272.55,5.00 1352.62,1272.12,4.96 1354.34,1271.00,4.93 1355.34,1269.21,4.90 1355.62,1266.73,4.87"/>
    </edge>
    <edge id=":13_6" function="internal">
        <lane id=":13_6_0" index="0" disallow="tram rail_urban rail rail_electric rail_fast ship" speed="13.89" length="14.40" shape="1350.19,1272.55,5.00 1364.58,1272.07,5.00"/>
    </edge>
    <edge id=":14_0" function="internal">
        <lane id=":14_0_0" index="0" disallow="tram rail_urban rail rail_electric rail_fast ship" speed="6.08" length="7.75" shape="1433.37,1268.15,2.02 1433.14,1270.26,2.05 1432.29,1271.79,2.07 1430.82,1272.75,2.10 1428.73,1273.12,2.13"/>
    </edge>
    <edge id=":14_1" function="internal">
        <lane id=":14_1_0" index="0" disallow="tram rail_urban rail rail_electric rail_fast ship" speed="3.65" length="2.66" shape="1433.37,1268.15,2.02 1432.61,1269.38,2.02 1431.82,1269.81,2.02 1431.53,1269.67,2.02"/>
    </edge>
    <edge id=":14_3" function="internal">
        <lane id=":14_3_0" index="0" disallow="tram rail_urban rail rail_electric rail_fast ship" speed="3.65" length="2.02" shape="1431.53,1269.67,2.02 1431.01,1269.43,2.02 1430.17,1268.26,2.02"/>
    </edge>
    <edge id=":14_2" function="internal">
        <lane id=":14_2_0" index="0" disallow="tram rail_urban rail rail_electric rail_fast ship" speed="3.90" length="2.59" shape="1428.62,1269.92,2.14 1429.32,1269.79,2.11 1429.81,1269.48,2.08 1430.09,1268.97,2.05 1430.17,1268.26,2.02"/>
    </edge>
    <edge id=":15_0" function="internal">
        <lane id=":15_0_0" index="0" disallow="tram rail_urban rail rail_electric rail_fast ship" speed="6.51" length="9.03" shape="1424.84,1115.99,2.96 1424.41,1113.55,2.94 1423.30,1111.84,2.93 1421.51,1110.85,2.92 1419.05,1110.59,2.90"/>
    </edge>
    <edge id=":15_1" function="internal">
        <lane id=":15_1_0" index="0" disallow="tram rail_urban rail rail_electric rail_fast ship" speed="13.89" length="14.40" shape="1424.84,1115.99,2.96 1424.34,1101.60,2.96"/>
    </edge>
    <edge id=":15_2" function="internal">
        <lane id=":15_2_0" index="0" disallow="tram rail_urban rail rail_electric rail_fast ship" speed="3.65" length="2.34" shape="1424.84,1115.99,2.96 1425.60,1114.76,2.96 1426.39,1114.34,2.96"/>
    </edge>
    <edge id=":15_9" function="internal">
        <lane id=":15_9_0" index="0" disallow="tram rail_urban rail rail_electric rail_fast ship" speed="3.65" length="2.34" shape="1426.39,1114.34,2.96 1427.20,1114.71,2.96 1428.04,1115.88,2.96"/>
    </edge>
    <edge id=":15_3" function="internal">
        <lane id=":15_3_0" index="0" disallow="tram rail_urban rail rail_electric rail_fast ship" speed="13.89" length="14.40" shape="1427.54,1101.49,2.96 1428.04,1115.88,2.96"/>
    </edge>
    <edge id=":15_4" function="internal">
        <lane id=":15_4_0" index="0" disallow="tram rail_urban rail rail_electric rail_fast ship" speed="8.00" length="5.93" shape="1427.54,1101.49,2.96 1427.12,1105.36,2.94 1426.13,1107.14,2.93"/>
    </edge>
    <edge id=":15_5" function="internal">
        <lane id=":15_5_0" index="0" disallow="tram rail_urban rail rail_electric rail_fast ship" speed="3.65" length="2.34" shape="1427.54,1101.49,2.96 1426.78,1102.72,2.96 1425.99,1103.14,2.96"/>
    </edge>
    <edge id=":15_10" function="internal">
        <lane id=":15_10_0" index="0" disallow="tram rail_urban rail rail_electric rail_fast ship" speed="8.00" length="8.26" shape="1426.13,1107.14,2.93 1425.57,1108.16,2.93 1422.88,1109.91,2.92 1419.05,1110.59,2.90"/>
    </edge>
    <edge id=":15_11" function="internal">
        <lane id=":15_11_0" index="0" disallow="tram rail_urban rail rail_electric rail_fast ship" speed="3.65" length="2.34" shape="1425.99,1103.14,2.96 1425.18,1102.77,2.96 1424.34,1101.60,2.96"/>
    </edge>
    <edge id=":15_6" function="internal">
        <lane id=":15_6_0" index="0" disallow="tram rail_urban rail rail_electric rail_fast ship" speed="6.51" length="9.03" shape="1418.94,1107.39,2.90 1421.37,1106.96,2.92 1423.09,1105.85,2.93 1424.08,1104.06,2.94 1424.34,1101.60,2.96"/>
    </edge>
    <edge id=":15_7" function="internal">
        <lane id=":15_7_0" index="0" disallow="tram rail_urban rail rail_electric rail_fast ship" speed="8.00" length="14.19" shape="1418.94,1107.39,2.90 1422.81,1107.81,2.92 1425.61,1109.36,2.93 1427.36,1112.05,2.94 1428.04,1115.88,2.96"/>
    </edge>
    <edge id=":15_8" function="internal">
        <lane id=":15_8_0" index="0" disallow="tram rail_urban rail rail_electric rail_fast ship" speed="3.65" length="4.67" shape="1418.94,1107.39,2.90 1420.17,1108.15,2.90 1420.59,1108.93,2.90 1420.22,1109.75,2.90 1419.05,1110.59,2.90"/>
    </edge>
    <edge id=":16_0" function="internal">
        <lane id=":16_0_0" index="0" disallow="tram rail_urban rail rail_electric rail_fast ship" speed="6.49" length="9.03" shape="1351.79,1118.55,2.13 1351.37,1116.10,2.12 1350.28,1114.39,2.11 1348.50,1113.39,2.11 1346.03,1113.13,2.10"/>
    </edge>
    <edge id=":16_1" function="internal">
        <lane id=":16_1_0" index="0" disallow="tram rail_urban rail rail_electric rail_fast ship" speed="13.89" length="14.42" shape="1351.79,1118.55,2.13 1351.35,1104.14,2.13"/>
    </edge>
    <edge id=":16_2" function="internal">
        <lane id=":16_2_0" index="0" disallow="tram rail_urban rail rail_electric rail_fast ship" speed="8.04" length="14.23" shape="1351.79,1118.55,2.13 1352.24,1114.67,2.12 1353.81,1111.86,2.12 1356.51,1110.11,2.11 1360.34,1109.43,2.10"/>
    </edge>
    <edge id=":16_3" function="internal">
        <lane id=":16_3_0" index="0" disallow="tram rail_urban rail rail_electric rail_fast ship" speed="3.65" length="4.67" shape="1351.79,1118.55,2.13 1352.56,1117.33,2.13 1353.35,1116.91,2.13 1354.16,1117.29,2.13 1354.99,1118.46,2.13"/>
    </edge>
    <edge id=":16_4" function="internal">
        <lane id=":16_4_0" index="0" disallow="tram rail_urban rail rail_electric rail_fast ship" speed="6.55" length="9.10" shape="1360.45,1112.63,2.10 1358.00,1113.07,2.11 1356.28,1114.19,2.12 1355.27,1115.98,2.12 1354.99,1118.46,2.13"/>
    </edge>
    <edge id=":16_5" function="internal">
        <lane id=":16_5_0" index="0" disallow="tram rail_urban rail rail_electric rail_fast ship" speed="13.89" length="14.43" shape="1360.45,1112.63,2.10 1346.03,1113.13,2.10"/>
    </edge>
    <edge id=":16_6" function="internal">
        <lane id=":16_6_0" index="0" disallow="tram rail_urban rail rail_electric rail_fast ship" speed="8.00" length="5.93" shape="1360.45,1112.63,2.10 1356.58,1112.21,2.11 1354.80,1111.22,2.11"/>
    </edge>
    <edge id=":16_7" function="internal">
        <lane id=":16_7_0" index="0" disallow="tram rail_urban rail rail_electric rail_fast ship" speed="3.65" length="2.34" shape="1360.45,1112.63,2.10 1359.22,1111.87,2.10 1358.79,1111.09,2.10"/>
    </edge>
    <edge id=":16_16" function="internal">
        <lane id=":16_16_0" index="0" disallow="tram rail_urban rail rail_electric rail_fast ship" speed="8.00" length="8.26" shape="1354.80,1111.22,2.11 1353.78,1110.66,2.12 1352.03,1107.97,2.12 1351.35,1104.14,2.13"/>
    </edge>
    <edge id=":16_17" function="internal">
        <lane id=":16_17_0" index="0" disallow="tram rail_urban rail rail_electric rail_fast ship" speed="3.65" length="2.34" shape="1358.79,1111.09,2.10 1359.17,1110.27,2.10 1360.34,1109.43,2.10"/>
    </edge>
    <edge id=":16_8" function="internal">
        <lane id=":16_8_0" index="0" disallow="tram rail_urban rail rail_electric rail_fast ship" speed="6.51" length="9.04" shape="1354.54,1104.03,2.13 1354.98,1106.46,2.12 1356.09,1108.18,2.12 1357.88,1109.17,2.11 1360.34,1109.43,2.10"/>
    </edge>
    <edge id=":16_9" function="internal">
        <lane id=":16_9_0" index="0" disallow="tram rail_urban rail rail_electric rail_fast ship" speed="13.89" length="14.45" shape="1354.54,1104.03,2.13 1354.99,1118.46,2.13"/>
    </edge>
    <edge id=":16_10" function="internal">
        <lane id=":16_10_0" index="0" disallow="tram rail_urban rail rail_electric rail_fast ship" speed="8.01" length="14.22" shape="1354.54,1104.03,2.13 1354.13,1107.89,2.12 1352.57,1110.70,2.11 1349.87,1112.45,2.11 1346.03,1113.13,2.10"/>
    </edge>
    <edge id=":16_11" function="internal">
        <lane id=":16_11_0" index="0" disallow="tram rail_urban rail rail_electric rail_fast ship" speed="3.65" length="4.67" shape="1354.54,1104.03,2.13 1353.79,1105.25,2.13 1353.00,1105.68,2.13 1352.19,1105.31,2.13 1351.35,1104.14,2.13"/>
    </edge>
    <edge id=":16_12" function="internal">
        <lane id=":16_12_0" index="0" disallow="tram rail_urban rail rail_electric rail_fast ship" speed="6.51" length="9.05" shape="1345.92,1109.93,2.10 1348.37,1109.50,2.11 1350.09,1108.39,2.11 1351.08,1106.60,2.12 1351.35,1104.14,2.13"/>
    </edge>
    <edge id=":16_13" function="internal">
        <lane id=":16_13_0" index="0" disallow="tram rail_urban rail rail_electric rail_fast ship" speed="13.89" length="14.43" shape="1345.92,1109.93,2.10 1360.34,1109.43,2.10"/>
    </edge>
    <edge id=":16_14" function="internal">
        <lane id=":16_14_0" index="0" disallow="tram rail_urban rail rail_electric rail_fast ship" speed="7.99" length="5.93" shape="1345.92,1109.93,2.10 1349.80,1110.35,2.11 1351.57,1111.34,2.11"/>
    </edge>
    <edge id=":16_15" function="internal">
        <lane id=":16_15_0" index="0" disallow="tram rail_urban rail rail_electric rail_fast ship" speed="3.65" length="2.34" shape="1345.92,1109.93,2.10 1347.15,1110.69,2.10 1347.58,1111.47,2.10"/>
    </edge>
    <edge id=":16_18" function="internal">
        <lane id=":16_18_0" index="0" disallow="tram rail_urban rail rail_electric rail_fast ship" speed="7.99" length="8.30" shape="1351.57,1111.34,2.11 1352.61,1111.91,2.11 1354.33,1114.62,2.12 1354.99,1118.46,2.13"/>
    </edge>
    <edge id=":16_19" function="internal">
        <lane id=":16_19_0" index="0" disallow="tram rail_urban rail rail_electric rail_fast ship" speed="3.65" length="2.34" shape="1347.58,1111.47,2.10 1347.20,1112.29,2.10 1346.03,1113.13,2.10"/>
    </edge>
    <edge id=":17_0" function="internal">
        <lane id=":17_0_0" index="0" disallow="tram rail_urban rail rail_electric rail_fast ship" speed="6.53" length="9.07" shape="1276.47,1121.16,3.00 1276.03,1118.71,3.03 1274.91,1117.00,3.05 1273.12,1116.00,3.07 1270.65,1115.74,3.10"/>
    </edge>
    <edge id=":17_1" function="internal">
        <lane id=":17_1_0" index="0" disallow="tram rail_urban rail rail_electric rail_fast ship" speed="13.89" length="14.42" shape="1276.47,1121.16,3.00 1275.93,1106.75,2.91"/>
    </edge>
    <edge id=":17_2" function="internal">
        <lane id=":17_2_0" index="0" disallow="tram rail_urban rail rail_electric rail_fast ship" speed="8.00" length="14.21" shape="1276.47,1121.16,3.00 1276.88,1117.28,2.97 1278.43,1114.47,2.95 1281.12,1112.73,2.93 1284.95,1112.04,2.90"/>
    </edge>
    <edge id=":17_3" function="internal">
        <lane id=":17_3_0" index="0" disallow="tram rail_urban rail rail_electric rail_fast ship" speed="3.65" length="4.67" shape="1276.47,1121.16,3.00 1277.23,1119.93,3.00 1278.01,1119.50,3.00 1278.83,1119.87,3.00 1279.67,1121.03,3.00"/>
    </edge>
    <edge id=":17_4" function="internal">
        <lane id=":17_4_0" index="0" disallow="tram rail_urban rail rail_electric rail_fast ship" speed="6.50" length="9.03" shape="1285.06,1115.24,2.90 1282.62,1115.67,2.93 1280.91,1116.79,2.95 1279.93,1118.57,2.97 1279.67,1121.03,3.00"/>
    </edge>
    <edge id=":17_5" function="internal">
        <lane id=":17_5_0" index="0" disallow="tram rail_urban rail rail_electric rail_fast ship" speed="13.89" length="14.42" shape="1285.06,1115.24,2.90 1270.65,1115.74,3.10"/>
    </edge>
    <edge id=":17_6" function="internal">
        <lane id=":17_6_0" index="0" disallow="tram rail_urban rail rail_electric rail_fast ship" speed="8.02" length="5.94" shape="1285.06,1115.24,2.90 1281.19,1114.82,2.91 1279.40,1113.83,2.91"/>
    </edge>
    <edge id=":17_7" function="internal">
        <lane id=":17_7_0" index="0" disallow="tram rail_urban rail rail_electric rail_fast ship" speed="3.65" length="2.34" shape="1285.06,1115.24,2.90 1283.83,1114.48,2.90 1283.41,1113.70,2.90"/>
    </edge>
    <edge id=":17_16" function="internal">
        <lane id=":17_16_0" index="0" disallow="tram rail_urban rail rail_electric rail_fast ship" speed="8.02" length="8.28" shape="1279.40,1113.83,2.91 1278.38,1113.27,2.91 1276.62,1110.58,2.91 1275.93,1106.75,2.91"/>
    </edge>
    <edge id=":17_17" function="internal">
        <lane id=":17_17_0" index="0" disallow="tram rail_urban rail rail_electric rail_fast ship" speed="3.65" length="2.34" shape="1283.41,1113.70,2.90 1283.78,1112.88,2.90 1284.95,1112.04,2.90"/>
    </edge>
    <edge id=":17_8" function="internal">
        <lane id=":17_8_0" index="0" disallow="tram rail_urban rail rail_electric rail_fast ship" speed="6.53" length="9.06" shape="1279.13,1106.62,2.91 1279.57,1109.07,2.91 1280.69,1110.78,2.91 1282.48,1111.78,2.91 1284.95,1112.04,2.90"/>
    </edge>
    <edge id=":17_9" function="internal">
        <lane id=":17_9_0" index="0" disallow="tram rail_urban rail rail_electric rail_fast ship" speed="13.89" length="14.42" shape="1279.13,1106.62,2.91 1279.67,1121.03,3.00"/>
    </edge>
    <edge id=":17_10" function="internal">
        <lane id=":17_10_0" index="0" disallow="tram rail_urban rail rail_electric rail_fast ship" speed="8.00" length="14.21" shape="1279.13,1106.62,2.91 1278.72,1110.50,2.96 1277.17,1113.31,3.01 1274.48,1115.05,3.05 1270.65,1115.74,3.10"/>
    </edge>
    <edge id=":17_11" function="internal">
        <lane id=":17_11_0" index="0" disallow="tram rail_urban rail rail_electric rail_fast ship" speed="3.65" length="4.67" shape="1279.13,1106.62,2.91 1278.37,1107.85,2.91 1277.59,1108.28,2.91 1276.77,1107.91,2.91 1275.93,1106.75,2.91"/>
    </edge>
    <edge id=":17_12" function="internal">
        <lane id=":17_12_0" index="0" disallow="tram rail_urban rail rail_electric rail_fast ship" speed="6.50" length="9.03" shape="1270.54,1112.54,3.10 1272.98,1112.11,3.05 1274.69,1110.99,3.01 1275.67,1109.21,2.96 1275.93,1106.75,2.91"/>
    </edge>
    <edge id=":17_13" function="internal">
        <lane id=":17_13_0" index="0" disallow="tram rail_urban rail rail_electric rail_fast ship" speed="13.89" length="14.42" shape="1270.54,1112.54,3.10 1284.95,1112.04,2.90"/>
    </edge>
    <edge id=":17_14" function="internal">
        <lane id=":17_14_0" index="0" disallow="tram rail_urban rail rail_electric rail_fast ship" speed="8.02" length="5.94" shape="1270.54,1112.54,3.10 1274.41,1112.96,3.07 1276.20,1113.95,3.06"/>
    </edge>