<?xml version="1.0" encoding="UTF-8"?>

<!-- generated on sáb 22 ago 2020 15:17:25 -03 by Eclipse SUMO netedit Version 1.5.0
<configuration xmlns:xsi="http://www.w3.org/2001/XMLSchema-instance" xsi:noNamespaceSchemaLocation="http://sumo.dlr.de/xsd/netconvertConfiguration.xsd">

    <input>
        <sumo-net-file value="/home/mariavitoria/salesmanProblem/SUMO2/map.net.xml"/>
    </input>

    <output>
        <output-file value="/home/mariavitoria/salesmanProblem/SUMO2/map.net.xml"/>
    </output>

    <processing>
        <geometry.min-radius.fix.railways value="false"/>
        <geometry.max-grade.fix value="false"/>
        <offset.disable-normalization value="true"/>
        <lefthand value="false"/>
    </processing>

    <junctions>
        <no-turnarounds value="true"/>
        <junctions.corner-detail value="5"/>
        <junctions.limit-turn-speed value="5.5"/>
        <rectangular-lane-cut value="false"/>
    </junctions>

    <pedestrian>
        <walkingareas value="false"/>
    </pedestrian>

    <report>
        <aggregate-warnings value="5"/>
    </report>

</configuration>
-->

<net version="1.3" junctionCornerDetail="5" limitTurnSpeed="5.50" xmlns:xsi="http://www.w3.org/2001/XMLSchema-instance" xsi:noNamespaceSchemaLocation="http://sumo.dlr.de/xsd/net_file.xsd">

    <location netOffset="-177094.89,146261.94" convBoundary="292.79,2059.57,811.42,2880.14" origBoundary="-47.901359,-1.321576,-47.883654,-1.294918" projParameter="+proj=utm +zone=23 +ellps=WGS84 +datum=WGS84 +units=m +no_defs"/>

    <type id="highway.bridleway" priority="1" numLanes="1" speed="2.78" allow="pedestrian" oneway="1" width="2.00"/>
    <type id="highway.bus_guideway" priority="1" numLanes="1" speed="27.78" allow="bus" oneway="1"/>
    <type id="highway.cycleway" priority="1" numLanes="1" speed="8.33" allow="bicycle" oneway="0" width="1.00"/>
    <type id="highway.footway" priority="1" numLanes="1" speed="2.78" allow="pedestrian" oneway="1" width="2.00"/>
    <type id="highway.ford" priority="1" numLanes="1" speed="2.78" allow="army" oneway="0"/>
    <type id="highway.living_street" priority="2" numLanes="1" speed="2.78" disallow="tram rail_urban rail rail_electric rail_fast ship" oneway="0"/>
    <type id="highway.motorway" priority="14" numLanes="2" speed="39.44" allow="private emergency authority army vip passenger hov taxi bus coach delivery truck trailer motorcycle evehicle custom1 custom2" oneway="1"/>
    <type id="highway.motorway_link" priority="9" numLanes="1" speed="22.22" allow="private emergency authority army vip passenger hov taxi bus coach delivery truck trailer motorcycle evehicle custom1 custom2" oneway="1"/>
    <type id="highway.path" priority="1" numLanes="1" speed="2.78" allow="pedestrian bicycle" oneway="1" width="2.00"/>
    <type id="highway.pedestrian" priority="1" numLanes="1" speed="2.78" allow="pedestrian" oneway="1" width="2.00"/>
    <type id="highway.primary" priority="12" numLanes="2" speed="27.78" disallow="tram rail_urban rail rail_electric rail_fast ship" oneway="0"/>
    <type id="highway.primary_link" priority="7" numLanes="1" speed="22.22" disallow="tram rail_urban rail rail_electric rail_fast ship" oneway="0"/>
    <type id="highway.raceway" priority="15" numLanes="2" speed="83.33" allow="vip" oneway="0"/>
    <type id="highway.residential" priority="3" numLanes="1" speed="13.89" disallow="tram rail_urban rail rail_electric rail_fast ship" oneway="0"/>
    <type id="highway.secondary" priority="11" numLanes="1" speed="27.78" disallow="tram rail_urban rail rail_electric rail_fast ship" oneway="0"/>
    <type id="highway.secondary_link" priority="6" numLanes="1" speed="22.22" disallow="tram rail_urban rail rail_electric rail_fast ship" oneway="0"/>
    <type id="highway.service" priority="1" numLanes="1" speed="5.56" allow="pedestrian delivery bicycle" oneway="0"/>
    <type id="highway.stairs" priority="1" numLanes="1" speed="1.39" allow="pedestrian" oneway="1" width="2.00"/>
    <type id="highway.step" priority="1" numLanes="1" speed="1.39" allow="pedestrian" oneway="1" width="2.00"/>
    <type id="highway.steps" priority="1" numLanes="1" speed="1.39" allow="pedestrian" oneway="1" width="2.00"/>
    <type id="highway.tertiary" priority="10" numLanes="1" speed="22.22" disallow="tram rail_urban rail rail_electric rail_fast ship" oneway="0"/>
    <type id="highway.tertiary_link" priority="5" numLanes="1" speed="22.22" disallow="tram rail_urban rail rail_electric rail_fast ship" oneway="0"/>
    <type id="highway.track" priority="1" numLanes="1" speed="5.56" disallow="tram rail_urban rail rail_electric rail_fast ship" oneway="0"/>
    <type id="highway.trunk" priority="13" numLanes="2" speed="27.78" disallow="pedestrian bicycle tram rail_urban rail rail_electric rail_fast ship" oneway="0"/>
    <type id="highway.trunk_link" priority="8" numLanes="1" speed="22.22" disallow="pedestrian bicycle tram rail_urban rail rail_electric rail_fast ship" oneway="0"/>
    <type id="highway.unclassified" priority="4" numLanes="1" speed="13.89" disallow="tram rail_urban rail rail_electric rail_fast ship" oneway="0"/>
    <type id="highway.unsurfaced" priority="1" numLanes="1" speed="8.33" disallow="tram rail_urban rail rail_electric rail_fast ship" oneway="0"/>
    <type id="railway.highspeed" priority="21" numLanes="1" speed="69.44" allow="rail_fast" oneway="1"/>
    <type id="railway.light_rail" priority="19" numLanes="1" speed="27.78" allow="rail_urban" oneway="1"/>
    <type id="railway.preserved" priority="16" numLanes="1" speed="27.78" allow="rail" oneway="1"/>
    <type id="railway.rail" priority="20" numLanes="1" speed="44.44" allow="rail" oneway="1"/>
    <type id="railway.subway" priority="18" numLanes="1" speed="27.78" allow="rail_urban" oneway="1"/>
    <type id="railway.tram" priority="17" numLanes="1" speed="13.89" allow="tram" oneway="1"/>

    <edge id=":01_0" function="internal">
        <lane id=":01_0_0" index="0" disallow="tram rail_urban rail rail_electric rail_fast ship" speed="6.07" length="7.96" shape="296.00,2851.76,1.01 293.85,2851.30,1.01 292.40,2850.27,1.02 291.63,2848.65,1.02 291.55,2846.46,1.02"/>
    </edge>
    <edge id=":01_1" function="internal">
        <lane id=":01_1_0" index="0" disallow="tram rail_urban rail rail_electric rail_fast ship" speed="3.90" length="2.65" shape="294.74,2846.80,1.02 294.76,2847.53,1.02 295.02,2848.07,1.02 295.50,2848.42,1.01 296.22,2848.57,1.01"/>
    </edge>
    <edge id=":02_0" function="internal">
        <lane id=":02_0_0" index="0" disallow="tram rail_urban rail rail_electric rail_fast ship" speed="13.89" length="14.46" shape="449.85,2862.22,1.52 435.42,2861.32,1.48"/>
    </edge>
    <edge id=":02_1" function="internal">
        <lane id=":02_1_0" index="0" disallow="tram rail_urban rail rail_electric rail_fast ship" speed="7.93" length="6.00" shape="449.85,2862.22,1.52 445.98,2861.44,1.52 444.30,2860.27,1.52"/>
    </edge>
    <edge id=":02_6" function="internal">
        <lane id=":02_6_0" index="0" disallow="tram rail_urban rail rail_electric rail_fast ship" speed="7.93" length="8.35" shape="444.30,2860.27,1.52 443.33,2859.60,1.52 441.92,2856.71,1.52 441.75,2852.75,1.52"/>
    </edge>
    <edge id=":02_2" function="internal">
        <lane id=":02_2_0" index="0" disallow="tram rail_urban rail rail_electric rail_fast ship" speed="6.42" length="9.04" shape="444.93,2853.07,1.52 445.04,2855.55,1.52 445.93,2857.38,1.52 447.59,2858.54,1.52 450.03,2859.03,1.52"/>
    </edge>
    <edge id=":02_3" function="internal">
        <lane id=":02_3_0" index="0" disallow="tram rail_urban rail rail_electric rail_fast ship" speed="8.11" length="14.27" shape="444.93,2853.07,1.52 444.01,2856.90,1.51 442.12,2859.55,1.50 439.25,2861.03,1.49 435.42,2861.32,1.48"/>
    </edge>
    <edge id=":02_4" function="internal">
        <lane id=":02_4_0" index="0" disallow="tram rail_urban rail rail_electric rail_fast ship" speed="6.63" length="9.22" shape="435.64,2858.13,1.48 438.10,2857.93,1.49 439.94,2856.97,1.50 441.15,2855.25,1.51 441.75,2852.75,1.52"/>
    </edge>
    <edge id=":02_5" function="internal">
        <lane id=":02_5_0" index="0" disallow="tram rail_urban rail rail_electric rail_fast ship" speed="13.89" length="14.42" shape="435.64,2858.13,1.48 450.03,2859.03,1.52"/>
    </edge>
    <edge id=":03_0" function="internal">
        <lane id=":03_0_0" index="0" disallow="tram rail_urban rail rail_electric rail_fast ship" speed="13.89" length="14.32" shape="604.20,2871.11,2.00 589.91,2870.18,1.98"/>
    </edge>
    <edge id=":03_1" function="internal">
        <lane id=":03_1_0" index="0" disallow="tram rail_urban rail rail_electric rail_fast ship" speed="8.07" length="14.18" shape="604.20,2871.11,2.00 600.44,2870.28,2.00 597.82,2868.44,2.00 596.32,2865.57,2.00 595.97,2861.69,2.00"/>
    </edge>
    <edge id=":03_2" function="internal">
        <lane id=":03_2_0" index="0" disallow="tram rail_urban rail rail_electric rail_fast ship" speed="6.59" length="9.12" shape="599.16,2861.85,2.00 599.39,2864.35,2.00 600.35,2866.20,2.00 602.03,2867.38,2.00 604.44,2867.92,2.00"/>
    </edge>
    <edge id=":03_3" function="internal">
        <lane id=":03_3_0" index="0" disallow="tram rail_urban rail rail_electric rail_fast ship" speed="7.99" length="14.23" shape="599.16,2861.85,2.00 598.43,2865.68,1.99 596.64,2868.35,1.99 593.80,2869.84,1.98 589.91,2870.18,1.98"/>
    </edge>
    <edge id=":03_4" function="internal">
        <lane id=":03_4_0" index="0" disallow="tram rail_urban rail rail_electric rail_fast ship" speed="6.49" length="9.03" shape="590.09,2866.98,1.98 592.56,2866.77,1.98 594.36,2865.82,1.99 595.50,2864.13,1.99 595.97,2861.69,2.00"/>
    </edge>
    <edge id=":03_5" function="internal">
        <lane id=":03_5_0" index="0" disallow="tram rail_urban rail rail_electric rail_fast ship" speed="13.89" length="14.37" shape="590.09,2866.98,1.98 604.44,2867.92,2.00"/>
    </edge>
    <edge id=":05_0" function="internal">
        <lane id=":05_0_0" index="0" disallow="tram rail_urban rail rail_electric rail_fast ship" speed="6.08" length="7.68" shape="750.55,2877.12,2.10 750.08,2879.17,2.10 749.07,2880.58,2.10 747.51,2881.36,2.10 745.42,2881.50,2.10"/>
    </edge>
    <edge id=":05_1" function="internal">
        <lane id=":05_1_0" index="0" speed="3.90" length="2.56" shape="745.65,2878.31,2.10 746.35,2878.26,2.10 746.87,2878.01,2.10 747.21,2877.53,2.10 747.36,2876.85,2.10"/>
    </edge>
    <edge id=":06_0" function="internal">
        <lane id=":06_0_0" index="0" disallow="tram rail_urban rail rail_electric rail_fast ship" speed="6.63" length="9.11" shape="307.71,2778.72,1.51 305.21,2778.90,1.50 303.34,2779.81,1.48 302.10,2781.46,1.47 301.49,2783.84,1.45"/>
    </edge>
    <edge id=":06_1" function="internal">
        <lane id=":06_1_0" index="0" disallow="tram rail_urban rail rail_electric rail_fast ship" speed="8.00" length="14.17" shape="307.71,2778.72,1.51 303.91,2777.92,1.51 301.28,2776.10,1.51 299.81,2773.25,1.50 299.51,2769.38,1.50"/>
    </edge>
    <edge id=":06_2" function="internal">
        <lane id=":06_2_0" index="0" disallow="tram rail_urban rail rail_electric rail_fast ship" speed="3.65" length="4.67" shape="307.71,2778.72,1.51 306.57,2777.84,1.51 306.22,2777.02,1.51 306.67,2776.24,1.51 307.92,2775.53,1.51"/>
    </edge>
    <edge id=":06_3" function="internal">
        <lane id=":06_3_0" index="0" disallow="tram rail_urban rail rail_electric rail_fast ship" speed="6.51" length="9.01" shape="302.70,2769.58,1.50 302.89,2772.05,1.50 303.83,2773.86,1.51 305.50,2775.02,1.51 307.92,2775.53,1.51"/>
    </edge>
    <edge id=":06_4" function="internal">
        <lane id=":06_4_0" index="0" disallow="tram rail_urban rail rail_electric rail_fast ship" speed="13.89" length="14.31" shape="302.70,2769.58,1.50 301.49,2783.84,1.45"/>
    </edge>
    <edge id=":06_5" function="internal">
        <lane id=":06_5_0" index="0" disallow="tram rail_urban rail rail_electric rail_fast ship" speed="3.65" length="2.34" shape="302.70,2769.58,1.50 301.83,2770.73,1.50 301.00,2771.08,1.50"/>
    </edge>
    <edge id=":06_9" function="internal">
        <lane id=":06_9_0" index="0" disallow="tram rail_urban rail rail_electric rail_fast ship" speed="3.65" length="2.34" shape="301.00,2771.08,1.50 300.23,2770.63,1.50 299.51,2769.38,1.50"/>
    </edge>
    <edge id=":06_6" function="internal">
        <lane id=":06_6_0" index="0" disallow="tram rail_urban rail rail_electric rail_fast ship" speed="13.89" length="14.17" shape="298.31,2783.50,1.45 299.51,2769.38,1.50"/>
    </edge>
    <edge id=":06_7" function="internal">
        <lane id=":06_7_0" index="0" disallow="tram rail_urban rail rail_electric rail_fast ship" speed="8.10" length="5.66" shape="298.31,2783.50,1.45 299.25,2779.80,1.47 300.35,2778.33,1.48"/>
    </edge>
    <edge id=":06_8" function="internal">
        <lane id=":06_8_0" index="0" disallow="tram rail_urban rail rail_electric rail_fast ship" speed="3.65" length="2.34" shape="298.31,2783.50,1.45 299.23,2782.39,1.45 300.07,2782.08,1.45"/>
    </edge>
    <edge id=":06_10" function="internal">
        <lane id=":06_10_0" index="0" disallow="tram rail_urban rail rail_electric rail_fast ship" speed="8.10" length="8.46" shape="300.35,2778.33,1.48 301.17,2777.23,1.48 304.06,2775.81,1.50 307.92,2775.53,1.51"/>
    </edge>
    <edge id=":06_11" function="internal">
        <lane id=":06_11_0" index="0" disallow="tram rail_urban rail rail_electric rail_fast ship" speed="3.65" length="2.34" shape="300.07,2782.08,1.45 300.82,2782.56,1.45 301.49,2783.84,1.45"/>
    </edge>
    <edge id=":07_0" function="internal">
        <lane id=":07_0_0" index="0" disallow="tram rail_urban rail rail_electric rail_fast ship" speed="6.63" length="9.25" shape="456.94,2788.59,1.76 454.44,2788.77,1.75 452.58,2789.71,1.74 451.35,2791.42,1.74 450.75,2793.90,1.73"/>
    </edge>
    <edge id=":07_1" function="internal">
        <lane id=":07_1_0" index="0" disallow="tram rail_urban rail rail_electric rail_fast ship" speed="13.89" length="14.50" shape="456.94,2788.59,1.76 442.48,2787.59,1.74"/>
    </edge>
    <edge id=":07_2" function="internal">
        <lane id=":07_2_0" index="0" disallow="tram rail_urban rail rail_electric rail_fast ship" speed="8.00" length="5.89" shape="456.94,2788.59,1.76 453.14,2787.76,1.76 451.51,2786.61,1.75"/>
    </edge>
    <edge id=":07_3" function="internal">
        <lane id=":07_3_0" index="0" disallow="tram rail_urban rail rail_electric rail_fast ship" speed="3.65" length="2.34" shape="456.94,2788.59,1.76 455.80,2787.71,1.76 455.46,2786.88,1.76"/>
    </edge>
    <edge id=":07_16" function="internal">
        <lane id=":07_16_0" index="0" disallow="tram rail_urban rail rail_electric rail_fast ship" speed="8.00" length="8.31" shape="451.51,2786.61,1.75 450.52,2785.91,1.75 449.08,2783.05,1.75 448.82,2779.16,1.75"/>
    </edge>
    <edge id=":07_17" function="internal">
        <lane id=":07_17_0" index="0" disallow="tram rail_urban rail rail_electric rail_fast ship" speed="3.65" length="2.34" shape="455.46,2786.88,1.76 455.92,2786.11,1.76 457.18,2785.40,1.76"/>
    </edge>
    <edge id=":07_4" function="internal">
        <lane id=":07_4_0" index="0" disallow="tram rail_urban rail rail_electric rail_fast ship" speed="6.50" length="9.03" shape="452.01,2779.40,1.75 452.17,2781.87,1.75 453.09,2783.70,1.75 454.76,2784.87,1.76 457.18,2785.40,1.76"/>
    </edge>
    <edge id=":07_5" function="internal">
        <lane id=":07_5_0" index="0" disallow="tram rail_urban rail rail_electric rail_fast ship" speed="13.89" length="14.55" shape="452.01,2779.40,1.75 450.75,2793.90,1.73"/>
    </edge>
    <edge id=":07_6" function="internal">
        <lane id=":07_6_0" index="0" disallow="tram rail_urban rail rail_electric rail_fast ship" speed="8.06" length="14.30" shape="452.01,2779.40,1.75 451.16,2783.20,1.74 449.29,2785.83,1.74 446.40,2787.29,1.74 442.48,2787.59,1.74"/>
    </edge>
    <edge id=":07_7" function="internal">
        <lane id=":07_7_0" index="0" disallow="tram rail_urban rail rail_electric rail_fast ship" speed="3.65" length="4.67" shape="452.01,2779.40,1.75 451.12,2780.54,1.75 450.29,2780.88,1.75 449.52,2780.42,1.75 448.82,2779.16,1.75"/>
    </edge>
    <edge id=":07_8" function="internal">
        <lane id=":07_8_0" index="0" disallow="tram rail_urban rail rail_electric rail_fast ship" speed="6.57" length="9.17" shape="442.69,2784.39,1.74 445.21,2784.21,1.74 447.07,2783.27,1.74 448.28,2781.59,1.74 448.82,2779.16,1.75"/>
    </edge>
    <edge id=":07_9" function="internal">
        <lane id=":07_9_0" index="0" disallow="tram rail_urban rail rail_electric rail_fast ship" speed="13.89" length="14.52" shape="442.69,2784.39,1.74 457.18,2785.40,1.76"/>
    </edge>
    <edge id=":07_10" function="internal">
        <lane id=":07_10_0" index="0" disallow="tram rail_urban rail rail_electric rail_fast ship" speed="7.94" length="5.97" shape="442.69,2784.39,1.74 446.54,2785.21,1.73 448.20,2786.38,1.73"/>
    </edge>
    <edge id=":07_11" function="internal">
        <lane id=":07_11_0" index="0" disallow="tram rail_urban rail rail_electric rail_fast ship" speed="3.65" length="2.34" shape="442.69,2784.39,1.74 443.83,2785.27,1.74 444.18,2786.10,1.74"/>
    </edge>
    <edge id=":07_18" function="internal">
        <lane id=":07_18_0" index="0" disallow="tram rail_urban rail rail_electric rail_fast ship" speed="7.94" length="8.34" shape="448.20,2786.38,1.73 449.17,2787.06,1.73 450.57,2789.96,1.73 450.75,2793.90,1.73"/>
    </edge>
    <edge id=":07_19" function="internal">
        <lane id=":07_19_0" index="0" disallow="tram rail_urban rail rail_electric rail_fast ship" speed="3.65" length="2.34" shape="444.18,2786.10,1.74 443.73,2786.87,1.74 442.48,2787.59,1.74"/>
    </edge>
    <edge id=":07_12" function="internal">
        <lane id=":07_12_0" index="0" disallow="tram rail_urban rail rail_electric rail_fast ship" speed="6.44" length="9.03" shape="447.56,2793.58,1.73 447.45,2791.10,1.73 446.57,2789.27,1.73 444.91,2788.10,1.73 442.48,2787.59,1.74"/>
    </edge>
    <edge id=":07_13" function="internal">
        <lane id=":07_13_0" index="0" disallow="tram rail_urban rail rail_electric rail_fast ship" speed="13.89" length="14.48" shape="447.56,2793.58,1.73 448.82,2779.16,1.75"/>
    </edge>
    <edge id=":07_14" function="internal">
        <lane id=":07_14_0" index="0" disallow="tram rail_urban rail rail_electric rail_fast ship" speed="8.11" length="14.32" shape="447.56,2793.58,1.73 448.49,2789.76,1.74 450.40,2787.13,1.74 453.30,2785.67,1.75 457.18,2785.40,1.76"/>
    </edge>
    <edge id=":07_15" function="internal">
        <lane id=":07_15_0" index="0" disallow="tram rail_urban rail rail_electric rail_fast ship" speed="3.65" length="4.67" shape="447.56,2793.58,1.73 448.48,2792.47,1.73 449.31,2792.15,1.73 450.07,2792.62,1.73 450.75,2793.90,1.73"/>
    </edge>
    <edge id=":08_0" function="internal">
        <lane id=":08_0_0" index="0" disallow="tram rail_urban rail rail_electric rail_fast ship" speed="6.51" length="9.08" shape="607.82,2799.47,2.01 605.33,2799.69,2.01 603.51,2800.65,2.00 602.36,2802.34,2.00 601.89,2804.77,2.00"/>
    </edge>
    <edge id=":08_1" function="internal">
        <lane id=":08_1_0" index="0" disallow="tram rail_urban rail rail_electric rail_fast ship" speed="13.89" length="14.50" shape="607.82,2799.47,2.01 593.35,2798.56,1.99"/>
    </edge>
    <edge id=":08_2" function="internal">
        <lane id=":08_2_0" index="0" disallow="tram rail_urban rail rail_electric rail_fast ship" speed="7.96" length="14.28" shape="607.82,2799.47,2.01 603.97,2798.71,1.98 601.31,2796.90,1.96 599.86,2794.03,1.94 599.60,2790.11,1.91"/>
    </edge>
    <edge id=":08_3" function="internal">
        <lane id=":08_3_0" index="0" disallow="tram rail_urban rail rail_electric rail_fast ship" speed="6.46" length="9.03" shape="602.79,2790.36,1.91 602.95,2792.84,1.94 603.88,2794.65,1.96 605.55,2795.80,1.98 607.99,2796.28,2.01"/>
    </edge>
    <edge id=":08_4" function="internal">
        <lane id=":08_4_0" index="0" disallow="tram rail_urban rail rail_electric rail_fast ship" speed="13.89" length="14.45" shape="602.79,2790.36,1.91 601.89,2804.77,2.00"/>
    </edge>
    <edge id=":08_5" function="internal">
        <lane id=":08_5_0" index="0" disallow="tram rail_urban rail rail_electric rail_fast ship" speed="8.03" length="5.83" shape="602.79,2790.36,1.91 601.95,2794.19,1.93 600.85,2795.75,1.94"/>
    </edge>
    <edge id=":08_6" function="internal">
        <lane id=":08_6_0" index="0" disallow="tram rail_urban rail rail_electric rail_fast ship" speed="3.65" length="2.34" shape="602.79,2790.36,1.91 601.90,2791.49,1.91 601.07,2791.83,1.91"/>
    </edge>
    <edge id=":08_15" function="internal">
        <lane id=":08_15_0" index="0" disallow="tram rail_urban rail rail_electric rail_fast ship" speed="8.03" length="8.42" shape="600.85,2795.75,1.94 600.09,2796.83,1.95 597.23,2798.29,1.97 593.35,2798.56,1.99"/>
    </edge>
    <edge id=":08_16" function="internal">
        <lane id=":08_16_0" index="0" disallow="tram rail_urban rail rail_electric rail_fast ship" speed="3.65" length="2.34" shape="601.07,2791.83,1.91 600.31,2791.37,1.91 599.60,2790.11,1.91"/>
    </edge>
    <edge id=":08_7" function="internal">
        <lane id=":08_7_0" index="0" disallow="tram rail_urban rail rail_electric rail_fast ship" speed="6.54" length="9.10" shape="593.59,2795.37,1.99 596.05,2795.19,1.97 597.88,2794.26,1.95 599.06,2792.57,1.93 599.60,2790.11,1.91"/>
    </edge>
    <edge id=":08_8" function="internal">
        <lane id=":08_8_0" index="0" disallow="tram rail_urban rail rail_electric rail_fast ship" speed="13.89" length="14.43" shape="593.59,2795.37,1.99 607.99,2796.28,2.01"/>
    </edge>
    <edge id=":08_9" function="internal">
        <lane id=":08_9_0" index="0" disallow="tram rail_urban rail rail_electric rail_fast ship" speed="8.08" length="14.23" shape="593.59,2795.37,1.99 597.38,2796.20,1.99 600.03,2798.04,1.99 601.53,2800.90,2.00 601.89,2804.77,2.00"/>
    </edge>
    <edge id=":08_10" function="internal">
        <lane id=":08_10_0" index="0" disallow="tram rail_urban rail rail_electric rail_fast ship" speed="3.65" length="4.67" shape="593.59,2795.37,1.99 594.72,2796.26,1.99 595.07,2797.08,1.99 594.61,2797.85,1.99 593.35,2798.56,1.99"/>
    </edge>
    <edge id=":08_11" function="internal">
        <lane id=":08_11_0" index="0" disallow="tram rail_urban rail rail_electric rail_fast ship" speed="6.61" length="9.16" shape="598.70,2804.62,2.00 598.46,2802.12,2.00 597.50,2800.28,1.99 595.79,2799.09,1.99 593.35,2798.56,1.99"/>
    </edge>
    <edge id=":08_12" function="internal">
        <lane id=":08_12_0" index="0" disallow="tram rail_urban rail rail_electric rail_fast ship" speed="13.89" length="14.54" shape="598.70,2804.62,2.00 599.60,2790.11,1.91"/>
    </edge>
    <edge id=":08_13" function="internal">
        <lane id=":08_13_0" index="0" disallow="tram rail_urban rail rail_electric rail_fast ship" speed="8.01" length="6.07" shape="598.70,2804.62,2.00 599.44,2800.79,2.00 600.65,2798.99,2.00"/>
    </edge>
    <edge id=":08_14" function="internal">
        <lane id=":08_14_0" index="0" disallow="tram rail_urban rail rail_electric rail_fast ship" speed="3.65" length="2.34" shape="598.70,2804.62,2.00 599.55,2803.46,2.00 600.37,2803.10,2.00"/>
    </edge>
    <edge id=":08_17" function="internal">
        <lane id=":08_17_0" index="0" disallow="tram rail_urban rail rail_electric rail_fast ship" speed="8.01" length="8.19" shape="600.65,2798.99,2.00 601.23,2798.13,2.00 604.08,2796.62,2.01 607.99,2796.28,2.01"/>
    </edge>
    <edge id=":08_18" function="internal">
        <lane id=":08_18_0" index="0" disallow="tram rail_urban rail rail_electric rail_fast ship" speed="3.65" length="2.34" shape="600.37,2803.10,2.00 601.15,2803.54,2.00 601.89,2804.77,2.00"/>
    </edge>
    <edge id=":10_0" function="internal">
        <lane id=":10_0_0" index="0" disallow="tram rail_urban rail rail_electric rail_fast ship" speed="13.89" length="14.37" shape="757.29,2798.76,2.12 756.01,2813.07,2.19"/>
    </edge>
    <edge id=":10_1" function="internal">
        <lane id=":10_1_0" index="0" disallow="tram rail_urban rail rail_electric rail_fast ship" speed="8.13" length="5.82" shape="757.29,2798.76,2.12 756.39,2802.49,2.14 755.21,2804.09,2.15"/>
    </edge>
    <edge id=":10_6" function="internal">
        <lane id=":10_6_0" index="0" disallow="tram rail_urban rail rail_electric rail_fast ship" speed="8.13" length="8.41" shape="755.21,2804.09,2.15 754.48,2805.08,2.16 751.57,2806.54,2.17 747.66,2806.87,2.19"/>
    </edge>
    <edge id=":10_2" function="internal">
        <lane id=":10_2_0" index="0" speed="6.66" length="9.22" shape="747.83,2803.68,2.19 750.38,2803.46,2.17 752.28,2802.53,2.16 753.52,2800.86,2.14 754.10,2798.47,2.12"/>
    </edge>
    <edge id=":10_3" function="internal">
        <lane id=":10_3_0" index="0" disallow="tram rail_urban rail rail_electric rail_fast ship" speed="7.94" length="14.32" shape="747.83,2803.68,2.19 751.70,2804.44,2.19 754.35,2806.26,2.19 755.79,2809.14,2.19 756.01,2813.07,2.19"/>
    </edge>
    <edge id=":10_4" function="internal">
        <lane id=":10_4_0" index="0" speed="6.44" length="9.03" shape="752.83,2812.80,2.19 752.68,2810.32,2.19 751.77,2808.50,2.19 750.10,2807.35,2.19 747.66,2806.87,2.19"/>
    </edge>
    <edge id=":10_5" function="internal">
        <lane id=":10_5_0" index="0" speed="13.89" length="14.39" shape="752.83,2812.80,2.19 754.10,2798.47,2.12"/>
    </edge>
    <edge id=":11_0" function="internal">
        <lane id=":11_0_0" index="0" disallow="tram rail_urban rail rail_electric rail_fast ship" speed="6.61" length="9.13" shape="313.51,2707.03,1.03 311.00,2707.23,0.98 309.14,2708.15,0.93 307.91,2709.81,0.88 307.33,2712.21,0.83"/>
    </edge>
    <edge id=":11_1" function="internal">
        <lane id=":11_1_0" index="0" disallow="tram rail_urban rail rail_electric rail_fast ship" speed="7.99" length="14.22" shape="313.51,2707.03,1.03 309.69,2706.24,1.04 307.05,2704.42,1.04 305.59,2701.56,1.05 305.30,2697.67,1.05"/>
    </edge>
    <edge id=":11_2" function="internal">
        <lane id=":11_2_0" index="0" disallow="tram rail_urban rail rail_electric rail_fast ship" speed="3.65" length="4.67" shape="313.51,2707.03,1.03 312.36,2706.16,1.03 312.01,2705.34,1.03 312.46,2704.56,1.03 313.71,2703.84,1.03"/>
    </edge>
    <edge id=":11_3" function="internal">
        <lane id=":11_3_0" index="0" disallow="tram rail_urban rail rail_electric rail_fast ship" speed="6.49" length="9.03" shape="308.50,2697.89,1.05 308.68,2700.37,1.05 309.61,2702.18,1.04 311.28,2703.34,1.04 313.71,2703.84,1.03"/>
    </edge>
    <edge id=":11_4" function="internal">
        <lane id=":11_4_0" index="0" disallow="tram rail_urban rail rail_electric rail_fast ship" speed="13.89" length="14.36" shape="308.50,2697.89,1.05 307.33,2712.21,0.83"/>
    </edge>
    <edge id=":11_5" function="internal">
        <lane id=":11_5_0" index="0" disallow="tram rail_urban rail rail_electric rail_fast ship" speed="3.65" length="2.34" shape="308.50,2697.89,1.05 307.62,2699.04,1.05 306.79,2699.38,1.05"/>
    </edge>
    <edge id=":11_9" function="internal">
        <lane id=":11_9_0" index="0" disallow="tram rail_urban rail rail_electric rail_fast ship" speed="3.65" length="2.34" shape="306.79,2699.38,1.05 306.02,2698.93,1.05 305.30,2697.67,1.05"/>
    </edge>
    <edge id=":11_6" function="internal">
        <lane id=":11_6_0" index="0" disallow="tram rail_urban rail rail_electric rail_fast ship" speed="13.89" length="14.29" shape="304.15,2711.91,0.83 305.30,2697.67,1.05"/>
    </edge>
    <edge id=":11_7" function="internal">
        <lane id=":11_7_0" index="0" disallow="tram rail_urban rail rail_electric rail_fast ship" speed="8.09" length="5.77" shape="304.15,2711.91,0.83 305.05,2708.18,0.88 306.18,2706.62,0.91"/>
    </edge>
    <edge id=":11_8" function="internal">
        <lane id=":11_8_0" index="0" disallow="tram rail_urban rail rail_electric rail_fast ship" speed="3.65" length="2.34" shape="304.15,2711.91,0.83 305.06,2710.79,0.83 305.89,2710.47,0.83"/>
    </edge>
    <edge id=":11_10" function="internal">
        <lane id=":11_10_0" index="0" disallow="tram rail_urban rail rail_electric rail_fast ship" speed="8.09" length="8.41" shape="306.18,2706.62,0.91 306.94,2705.59,0.93 309.83,2704.14,0.98 313.71,2703.84,1.03"/>
    </edge>
    <edge id=":11_11" function="internal">
        <lane id=":11_11_0" index="0" disallow="tram rail_urban rail rail_electric rail_fast ship" speed="3.65" length="2.34" shape="305.89,2710.47,0.83 306.65,2710.94,0.83 307.33,2712.21,0.83"/>
    </edge>
    <edge id=":12_0" function="internal">
        <lane id=":12_0_0" index="0" disallow="tram rail_urban rail rail_electric rail_fast ship" speed="6.53" length="9.09" shape="462.41,2716.33,1.67 459.93,2716.51,1.68 458.10,2717.43,1.69 456.92,2719.12,1.70 456.38,2721.55,1.70"/>
    </edge>
    <edge id=":12_1" function="internal">
        <lane id=":12_1_0" index="0" disallow="tram rail_urban rail rail_electric rail_fast ship" speed="13.89" length="14.44" shape="462.41,2716.33,1.67 448.00,2715.36,1.67"/>
    </edge>
    <edge id=":12_2" function="internal">
        <lane id=":12_2_0" index="0" disallow="tram rail_urban rail rail_electric rail_fast ship" speed="7.99" length="14.21" shape="462.41,2716.33,1.67 458.60,2715.50,1.66 455.98,2713.65,1.66 454.55,2710.78,1.65 454.30,2706.89,1.64"/>
    </edge>
    <edge id=":12_3" function="internal">
        <lane id=":12_3_0" index="0" disallow="tram rail_urban rail rail_electric rail_fast ship" speed="3.65" length="4.67" shape="462.41,2716.33,1.67 461.27,2715.45,1.67 460.93,2714.62,1.67 461.39,2713.85,1.67 462.65,2713.14,1.67"/>
    </edge>
    <edge id=":12_4" function="internal">